*SPEF "ieee 1481-1999"
*DESIGN "twos_complement"
*DATE "13:34:39 Sunday April 27, 2025"
*VENDOR "The OpenROAD Project"
*PROGRAM "OpenROAD"
*VERSION "b16bda7e82721d10566ff7e2b68f1ff0be9f9e38"
*DESIGN_FLOW "NAME_SCOPE LOCAL" "PIN_CAP NONE"
*DIVIDER /
*DELIMITER :
*BUS_DELIMITER []
*T_UNIT 1 NS
*C_UNIT 1 PF
*R_UNIT 1 OHM
*L_UNIT 1 HENRY

*NAME_MAP
*3 in[0]
*4 in[1]
*5 in[2]
*6 in[3]
*7 in[4]
*8 in[5]
*9 in[6]
*10 in[7]
*11 out[0]
*12 out[1]
*13 out[2]
*14 out[3]
*15 out[4]
*16 out[5]
*17 out[6]
*18 out[7]
*19 _00_
*20 _01_
*21 _02_
*22 _03_
*23 _04_
*24 _05_
*25 _06_
*26 _07_
*27 _08_
*28 net1
*29 net10
*30 net11
*31 net12
*32 net13
*33 net14
*34 net15
*35 net16
*36 net2
*37 net3
*38 net4
*39 net5
*40 net6
*41 net7
*42 net8
*43 net9
*44 FILLER_0_0_13
*45 FILLER_0_0_25
*46 FILLER_0_0_29
*47 FILLER_0_0_37
*48 FILLER_0_10_18
*49 FILLER_0_10_26
*50 FILLER_0_10_29
*51 FILLER_0_10_41
*52 FILLER_0_10_6
*53 FILLER_0_11_18
*54 FILLER_0_11_30
*55 FILLER_0_11_34
*56 FILLER_0_11_39
*57 FILLER_0_11_47
*58 FILLER_0_11_6
*59 FILLER_0_12_13
*60 FILLER_0_12_25
*61 FILLER_0_12_29
*62 FILLER_0_12_37
*63 FILLER_0_1_14
*64 FILLER_0_1_26
*65 FILLER_0_1_38
*66 FILLER_0_1_46
*67 FILLER_0_1_6
*68 FILLER_0_2_15
*69 FILLER_0_2_27
*70 FILLER_0_2_29
*71 FILLER_0_2_3
*72 FILLER_0_2_33
*73 FILLER_0_2_44
*74 FILLER_0_3_10
*75 FILLER_0_3_16
*76 FILLER_0_3_24
*77 FILLER_0_3_31
*78 FILLER_0_3_43
*79 FILLER_0_3_6
*80 FILLER_0_4_15
*81 FILLER_0_4_27
*82 FILLER_0_4_29
*83 FILLER_0_4_3
*84 FILLER_0_4_41
*85 FILLER_0_4_47
*86 FILLER_0_5_14
*87 FILLER_0_5_26
*88 FILLER_0_5_38
*89 FILLER_0_5_6
*90 FILLER_0_6_10
*91 FILLER_0_6_22
*92 FILLER_0_6_32
*93 FILLER_0_6_44
*94 FILLER_0_7_10
*95 FILLER_0_7_22
*96 FILLER_0_7_34
*97 FILLER_0_7_46
*98 FILLER_0_8_18
*99 FILLER_0_8_22
*100 FILLER_0_8_29
*101 FILLER_0_8_37
*102 FILLER_0_8_6
*103 FILLER_0_9_15
*104 FILLER_0_9_23
*105 FILLER_0_9_3
*106 FILLER_0_9_40
*107 PHY_EDGE_ROW_0_Left_13
*108 PHY_EDGE_ROW_0_Right_0
*109 PHY_EDGE_ROW_10_Left_23
*110 PHY_EDGE_ROW_10_Right_10
*111 PHY_EDGE_ROW_11_Left_24
*112 PHY_EDGE_ROW_11_Right_11
*113 PHY_EDGE_ROW_12_Left_25
*114 PHY_EDGE_ROW_12_Right_12
*115 PHY_EDGE_ROW_1_Left_14
*116 PHY_EDGE_ROW_1_Right_1
*117 PHY_EDGE_ROW_2_Left_15
*118 PHY_EDGE_ROW_2_Right_2
*119 PHY_EDGE_ROW_3_Left_16
*120 PHY_EDGE_ROW_3_Right_3
*121 PHY_EDGE_ROW_4_Left_17
*122 PHY_EDGE_ROW_4_Right_4
*123 PHY_EDGE_ROW_5_Left_18
*124 PHY_EDGE_ROW_5_Right_5
*125 PHY_EDGE_ROW_6_Left_19
*126 PHY_EDGE_ROW_6_Right_6
*127 PHY_EDGE_ROW_7_Left_20
*128 PHY_EDGE_ROW_7_Right_7
*129 PHY_EDGE_ROW_8_Left_21
*130 PHY_EDGE_ROW_8_Right_8
*131 PHY_EDGE_ROW_9_Left_22
*132 PHY_EDGE_ROW_9_Right_9
*133 TAP_TAPCELL_ROW_0_26
*134 TAP_TAPCELL_ROW_10_31
*135 TAP_TAPCELL_ROW_12_32
*136 TAP_TAPCELL_ROW_2_27
*137 TAP_TAPCELL_ROW_4_28
*138 TAP_TAPCELL_ROW_6_29
*139 TAP_TAPCELL_ROW_8_30
*140 _09_
*141 _10_
*142 _11_
*143 _12_
*144 _13_
*145 _14_
*146 _15_
*147 _16_
*148 _17_
*149 _18_
*150 _19_
*151 _20_
*152 _21_
*153 _22_
*154 _23_
*155 _24_
*156 _25_
*157 input1
*158 input2
*159 input3
*160 input4
*161 input5
*162 input6
*163 input7
*164 input8
*165 output10
*166 output11
*167 output12
*168 output13
*169 output14
*170 output15
*171 output16
*172 output9

*PORTS
in[0] I
in[1] I
in[2] I
in[3] I
in[4] I
in[5] I
in[6] I
in[7] I
out[0] O
out[1] O
out[2] O
out[3] O
out[4] O
out[5] O
out[6] O
out[7] O

*D_NET *3 0.00111812
*CONN
*P in[0] I
*I *157:A I *D sky130_fd_sc_hd__dlymetal6s2s_1
*CAP
1 in[0] 0.00055906
2 *157:A 0
3 *3:11 0.00055906
4 *3:11 *4:17 0
*RES
1 in[0] *3:11 31.1218 
2 *3:11 *157:A 23 
*END

*D_NET *4 0.000815582
*CONN
*P in[1] I
*I *158:A I *D sky130_fd_sc_hd__buf_1
*CAP
1 in[1] 0.000407791
2 *158:A 0
3 *4:17 0.000407791
4 *4:17 *159:A 0
5 *4:17 *28:8 0
6 *3:11 *4:17 0
*RES
1 in[1] *4:17 28.9191 
2 *4:17 *158:A 23 
*END

*D_NET *5 0.000615123
*CONN
*P in[2] I
*I *159:A I *D sky130_fd_sc_hd__buf_1
*CAP
1 in[2] 0.000307562
2 *159:A 0.000307562
3 *159:A *6:17 0
4 *4:17 *159:A 0
*RES
1 in[2] *159:A 49.8062 
*END

*D_NET *6 0.000742726
*CONN
*P in[3] I
*I *160:A I *D sky130_fd_sc_hd__clkbuf_1
*CAP
1 in[3] 0.000371363
2 *160:A 0
3 *6:17 0.000371363
4 *6:17 *7:17 0
5 *6:17 *28:10 0
6 *159:A *6:17 0
*RES
1 in[3] *6:17 28.2148 
2 *6:17 *160:A 23 
*END

*D_NET *7 0.000668781
*CONN
*P in[4] I
*I *161:A I *D sky130_fd_sc_hd__buf_1
*CAP
1 in[4] 0.000332535
2 *161:A 0
3 *7:17 0.000332535
4 *7:17 *8:17 0
5 *7:17 *39:8 3.7122e-06
6 *7:17 *39:54 0
7 *6:17 *7:17 0
*RES
1 in[4] *7:17 27.1584 
2 *7:17 *161:A 23 
*END

*D_NET *8 0.000785163
*CONN
*P in[5] I
*I *162:A I *D sky130_fd_sc_hd__buf_1
*CAP
1 in[5] 0.000386362
2 *162:A 0
3 *8:17 0.000386362
4 *8:17 *9:11 0
5 *8:17 *39:24 0
6 *8:17 *39:43 1.24376e-05
7 *7:17 *8:17 0
*RES
1 in[5] *8:17 28.567 
2 *8:17 *162:A 23 
*END

*D_NET *9 0.0010032
*CONN
*P in[6] I
*I *163:A I *D sky130_fd_sc_hd__clkbuf_1
*CAP
1 in[6] 0.000367005
2 *163:A 0
3 *9:11 0.000367005
4 *9:11 *145:A2 0.00026919
5 *9:11 *10:13 0
6 *8:17 *9:11 0
*RES
1 in[6] *9:11 27.9525 
2 *9:11 *163:A 23 
*END

*D_NET *10 0.00265705
*CONN
*P in[7] I
*I *164:A I *D sky130_fd_sc_hd__clkbuf_1
*CAP
1 in[7] 0.00104501
2 *164:A 0
3 *10:13 0.00104501
4 *10:13 *19:18 0.000364739
5 *10:13 *22:6 0.000202295
6 *9:11 *10:13 0
*RES
1 in[7] *10:13 37.2422 
2 *10:13 *164:A 23 
*END

*D_NET *11 0.00123536
*CONN
*P out[0] O
*I *172:X O *D sky130_fd_sc_hd__buf_2
*CAP
1 out[0] 0.00029892
2 *172:X 0.000318757
3 *11:8 0.000617678
4 out[0] out[1] 0
*RES
1 *172:X *11:8 44.6596 
2 *11:8 out[0] 9.10133 
*END

*D_NET *12 0.00046494
*CONN
*P out[1] O
*I *165:X O *D sky130_fd_sc_hd__buf_2
*CAP
1 out[1] 0.00023247
2 *165:X 0.00023247
3 out[1] out[2] 0
4 out[0] out[1] 0
*RES
1 *165:X out[1] 47.0789 
*END

*D_NET *13 0.000463691
*CONN
*P out[2] O
*I *166:X O *D sky130_fd_sc_hd__buf_2
*CAP
1 out[2] 0.000231846
2 *166:X 0.000231846
3 out[2] out[3] 0
4 out[2] *43:12 0
5 out[1] out[2] 0
*RES
1 *166:X out[2] 47.0789 
*END

*D_NET *14 0.000625196
*CONN
*P out[3] O
*I *167:X O *D sky130_fd_sc_hd__buf_2
*CAP
1 out[3] 0.000312598
2 *167:X 0.000312598
3 out[3] out[4] 0
4 out[3] *39:66 0
5 out[2] out[3] 0
*RES
1 *167:X out[3] 48.4875 
*END

*D_NET *15 0.000471871
*CONN
*P out[4] O
*I *168:X O *D sky130_fd_sc_hd__buf_2
*CAP
1 out[4] 0.000231625
2 *168:X 0.000231625
3 out[4] out[5] 0
4 out[4] *33:14 8.62073e-06
5 out[3] out[4] 0
*RES
1 *168:X out[4] 47.0789 
*END

*D_NET *16 0.000626916
*CONN
*P out[5] O
*I *169:X O *D sky130_fd_sc_hd__buf_2
*CAP
1 out[5] 0.000313458
2 *169:X 0.000313458
3 out[5] out[6] 0
4 out[5] *35:14 0
5 out[4] out[5] 0
*RES
1 *169:X out[5] 48.4875 
*END

*D_NET *17 0.00083414
*CONN
*P out[6] O
*I *170:X O *D sky130_fd_sc_hd__buf_2
*CAP
1 out[6] 0.00041707
2 *170:X 0.00041707
3 out[6] out[7] 0
4 out[5] out[6] 0
*RES
1 *170:X out[6] 47.5941 
*END

*D_NET *18 0.00110166
*CONN
*P out[7] O
*I *171:X O *D sky130_fd_sc_hd__clkbuf_4
*CAP
1 out[7] 0.000175108
2 *171:X 0.000375724
3 *18:8 0.000550832
4 out[6] out[7] 0
*RES
1 *171:X *18:8 45.7161 
2 *18:8 out[7] 8.672 
*END

*D_NET *19 0.0101168
*CONN
*I *155:B1_N I *D sky130_fd_sc_hd__a21boi_1
*I *142:B I *D sky130_fd_sc_hd__and2_1
*I *141:B I *D sky130_fd_sc_hd__nor2_1
*I *146:D I *D sky130_fd_sc_hd__or4_1
*I *145:A3 I *D sky130_fd_sc_hd__o31a_1
*I *140:X O *D sky130_fd_sc_hd__or4_2
*CAP
1 *155:B1_N 0.000152222
2 *142:B 0.000241622
3 *141:B 0.000168382
4 *146:D 0.000133807
5 *145:A3 0
6 *140:X 0.000139058
7 *19:47 0.000550185
8 *19:36 0.000661124
9 *19:18 0.00087467
10 *19:10 0.00107159
11 *19:6 0.000538568
12 *141:B *141:A 0.000180218
13 *141:B *20:8 0.000558459
14 *141:B *39:54 0.000390679
15 *142:B *21:10 0.0001164
16 *142:B *30:10 9.41704e-05
17 *142:B *39:66 1.32314e-05
18 *146:D *38:18 0.000184825
19 *155:B1_N *148:A 6.64204e-05
20 *155:B1_N *166:A 1.22803e-05
21 *155:B1_N *23:27 0.000107921
22 *155:B1_N *34:12 0.000169683
23 *19:6 *156:A 3.17516e-05
24 *19:6 *36:27 0.000128152
25 *19:6 *37:22 9.5877e-05
26 *19:6 *38:18 4.95081e-05
27 *19:10 *36:27 0.000313874
28 *19:10 *37:22 0.000311549
29 *19:18 *145:A1 5.73309e-05
30 *19:18 *22:6 0.000130553
31 *19:18 *34:12 0
32 *19:18 *38:18 6.16439e-05
33 *19:18 *41:18 4.32967e-05
34 *19:18 *41:37 0
35 *19:18 *42:8 1.6781e-05
36 *19:36 *21:10 1.14452e-05
37 *19:36 *23:8 0.000281852
38 *19:36 *29:26 0.000175851
39 *19:36 *34:12 0.000802953
40 *19:36 *38:18 0
41 *19:47 *21:10 0.000364806
42 *19:47 *23:27 2.60152e-05
43 *19:47 *34:12 0.000423289
44 *10:13 *19:18 0.000364739
*RES
1 *140:X *19:6 26.48 
2 *19:6 *19:10 18.48 
3 *19:10 *19:18 32.0064 
4 *19:18 *145:A3 23 
5 *19:10 *146:D 40.61 
6 *19:6 *19:36 25.7093 
7 *19:36 *141:B 44.3386 
8 *19:36 *19:47 5.77929 
9 *19:47 *142:B 42.4329 
10 *19:47 *155:B1_N 42.205 
*END

*D_NET *20 0.00398365
*CONN
*I *143:A I *D sky130_fd_sc_hd__nor2_1
*I *144:B I *D sky130_fd_sc_hd__xnor2_1
*I *141:Y O *D sky130_fd_sc_hd__nor2_1
*CAP
1 *143:A 0
2 *144:B 0
3 *141:Y 0.000321894
4 *20:16 0.000608578
5 *20:8 0.000930473
6 *20:8 *141:A 2.4754e-05
7 *20:8 *23:14 5.3304e-05
8 *20:8 *35:6 0.000261333
9 *20:8 *39:54 6.82514e-05
10 *20:16 *23:8 6.16439e-05
11 *20:16 *23:27 0.000150977
12 *20:16 *33:6 0.000877934
13 *20:16 *38:18 6.60455e-05
14 *141:B *20:8 0.000558459
*RES
1 *141:Y *20:8 31.7414 
2 *20:8 *20:16 44.065 
3 *20:16 *144:B 23 
4 *20:8 *143:A 23 
*END

*D_NET *21 0.00184532
*CONN
*I *143:B I *D sky130_fd_sc_hd__nor2_1
*I *142:X O *D sky130_fd_sc_hd__and2_1
*CAP
1 *143:B 0
2 *142:X 0.000415229
3 *21:10 0.000415229
4 *21:10 *23:8 6.16439e-05
5 *21:10 *23:27 0.000323822
6 *21:10 *30:10 0.000136743
7 *142:B *21:10 0.0001164
8 *19:36 *21:10 1.14452e-05
9 *19:47 *21:10 0.000364806
*RES
1 *142:X *21:10 47.0314 
2 *21:10 *143:B 38 
*END

*D_NET *22 0.00577857
*CONN
*I *147:A_N I *D sky130_fd_sc_hd__and2b_1
*I *145:X O *D sky130_fd_sc_hd__o31a_1
*CAP
1 *147:A_N 0
2 *145:X 0.000712362
3 *22:10 0.000831821
4 *22:6 0.00154418
5 *22:6 *34:12 0.000128401
6 *22:6 *42:8 5.79559e-05
7 *22:10 *26:14 0.0004331
8 *22:10 *29:26 0.000172257
9 *22:10 *34:12 0
10 *22:10 *35:14 0.000150498
11 *22:10 *43:12 0.00141515
12 *10:13 *22:6 0.000202295
13 *19:18 *22:6 0.000130553
*RES
1 *145:X *22:6 37.4379 
2 *22:6 *22:10 39.795 
3 *22:10 *147:A_N 38 
*END

*D_NET *23 0.00502992
*CONN
*I *147:B I *D sky130_fd_sc_hd__and2b_1
*I *149:B I *D sky130_fd_sc_hd__xor2_1
*I *146:X O *D sky130_fd_sc_hd__or4_1
*CAP
1 *147:B 0
2 *149:B 0
3 *146:X 0.0003278
4 *23:27 0.000502508
5 *23:14 0.000357519
6 *23:8 0.00118783
7 *23:8 *38:18 0
8 *23:14 *35:6 0.000918801
9 *23:14 *39:54 0.000361307
10 *23:27 *148:A 7.87561e-05
11 *23:27 *155:A1 0
12 *23:27 *166:A 0
13 *23:27 *31:8 0.000228221
14 *23:27 *38:18 0
15 *155:B1_N *23:27 0.000107921
16 *19:36 *23:8 0.000281852
17 *19:47 *23:27 2.60152e-05
18 *20:8 *23:14 5.3304e-05
19 *20:16 *23:8 6.16439e-05
20 *20:16 *23:27 0.000150977
21 *21:10 *23:8 6.16439e-05
22 *21:10 *23:27 0.000323822
*RES
1 *146:X *23:8 46.2443 
2 *23:8 *23:14 27.0764 
3 *23:14 *149:B 23 
4 *23:8 *23:27 27.325 
5 *23:27 *147:B 23 
*END

*D_NET *24 0.000322242
*CONN
*I *148:A I *D sky130_fd_sc_hd__clkbuf_1
*I *147:X O *D sky130_fd_sc_hd__and2b_1
*CAP
1 *148:A 8.85328e-05
2 *147:X 8.85328e-05
3 *155:B1_N *148:A 6.64204e-05
4 *23:27 *148:A 7.87561e-05
*RES
1 *147:X *148:A 48.0714 
*END

*D_NET *25 0.00331204
*CONN
*I *155:A2 I *D sky130_fd_sc_hd__a21boi_1
*I *153:A I *D sky130_fd_sc_hd__and2_1
*I *151:X O *D sky130_fd_sc_hd__or3_1
*CAP
1 *155:A2 0
2 *153:A 0.000302222
3 *151:X 0
4 *25:25 0.000776517
5 *25:6 0.00107874
6 *153:A *37:16 5.3835e-05
7 *153:A *37:22 0.000313941
8 *25:25 *37:16 0.000786789
*RES
1 *151:X *25:6 38 
2 *25:6 *153:A 45.25 
3 *25:6 *25:25 31.5714 
4 *25:25 *155:A2 23 
*END

*D_NET *26 0.00501854
*CONN
*I *153:B I *D sky130_fd_sc_hd__and2_1
*I *152:Y O *D sky130_fd_sc_hd__o21ai_1
*CAP
1 *153:B 0
2 *152:Y 0
3 *26:14 0.00137229
4 *26:6 0.00137229
5 *26:14 *146:B 0.000531515
6 *26:14 *166:A 0.000223961
7 *26:14 *27:8 2.32004e-05
8 *26:14 *29:26 0.000194416
9 *26:14 *34:12 0.000346232
10 *26:14 *39:43 7.66924e-05
11 *26:14 *41:37 0.000444845
12 *26:14 *43:12 0
13 *22:10 *26:14 0.0004331
*RES
1 *152:Y *26:6 38 
2 *26:6 *26:14 49.6343 
3 *26:14 *153:B 23 
*END

*D_NET *27 0.00226411
*CONN
*I *154:A I *D sky130_fd_sc_hd__clkbuf_1
*I *153:X O *D sky130_fd_sc_hd__and2_1
*CAP
1 *154:A 0
2 *153:X 4.30909e-05
3 *27:14 0.000839029
4 *27:8 0.00088212
5 *27:8 *39:43 0.000232734
6 *27:8 *41:37 0.000188307
7 *27:14 *37:16 0
8 *27:14 *37:22 0
9 *27:14 *38:12 5.56279e-05
10 *27:14 *38:18 0
11 *26:14 *27:8 2.32004e-05
*RES
1 *153:X *27:8 40.5271 
2 *27:8 *27:14 29.5 
3 *27:14 *154:A 23 
*END

*D_NET *28 0.010551
*CONN
*I *152:A2 I *D sky130_fd_sc_hd__o21ai_1
*I *151:C I *D sky130_fd_sc_hd__or3_1
*I *156:A I *D sky130_fd_sc_hd__clkbuf_1
*I *140:D I *D sky130_fd_sc_hd__or4_2
*I *150:B I *D sky130_fd_sc_hd__xor2_1
*I *157:X O *D sky130_fd_sc_hd__dlymetal6s2s_1
*CAP
1 *152:A2 0
2 *151:C 0.000100777
3 *156:A 0.00025399
4 *140:D 0
5 *150:B 0.000161467
6 *157:X 0.000124048
7 *28:58 0.000271887
8 *28:31 0.000888818
9 *28:16 0.00106303
10 *28:10 0.00100302
11 *28:8 0.00103144
12 *150:B *150:A 0.000222141
13 *150:B *39:24 1.22906e-05
14 *150:B *41:18 9.26005e-05
15 *150:B *41:37 2.81281e-05
16 *150:B *42:12 5.09885e-05
17 *151:C *151:B 1.75792e-05
18 *156:A *38:18 0.000143655
19 *156:A *43:8 1.73399e-05
20 *28:8 *36:10 3.0647e-05
21 *28:10 *36:10 0.000649909
22 *28:10 *37:8 0.000141879
23 *28:10 *40:27 0.000123326
24 *28:10 *42:12 0.000185104
25 *28:16 *150:A 6.48142e-05
26 *28:16 *36:10 4.17929e-05
27 *28:16 *36:12 0.000390645
28 *28:16 *42:12 0.000554674
29 *28:31 *36:27 0.000428781
30 *28:31 *38:18 0.000359381
31 *28:31 *39:24 8.06804e-06
32 *28:58 *152:A1 0.000715753
33 *28:58 *152:B1 0.000930246
34 *28:58 *36:6 5.12254e-05
35 *28:58 *37:12 0.000359819
36 *4:17 *28:8 0
37 *6:17 *28:10 0
38 *19:6 *156:A 3.17516e-05
*RES
1 *157:X *28:8 40.61 
2 *28:8 *28:10 17.0479 
3 *28:10 *28:16 10.0671 
4 *28:16 *150:B 42.1843 
5 *28:16 *28:31 28.0086 
6 *28:31 *140:D 23 
7 *28:31 *156:A 27.93 
8 *28:10 *151:C 39.5743 
9 *28:8 *28:58 29.9143 
10 *28:58 *152:A2 23 
*END

*D_NET *29 0.00717035
*CONN
*I *165:A I *D sky130_fd_sc_hd__buf_2
*I *150:X O *D sky130_fd_sc_hd__xor2_1
*CAP
1 *165:A 0
2 *150:X 0.000723743
3 *29:26 0.00247452
4 *29:12 0.00319827
5 *29:26 *34:12 0.000231293
6 *29:26 *43:12 0
7 *19:36 *29:26 0.000175851
8 *22:10 *29:26 0.000172257
9 *26:14 *29:26 0.000194416
*RES
1 *150:X *29:12 48.4036 
2 *29:12 *29:26 48.1881 
3 *29:26 *165:A 23 
*END

*D_NET *30 0.00256589
*CONN
*I *166:A I *D sky130_fd_sc_hd__buf_2
*I *154:X O *D sky130_fd_sc_hd__clkbuf_1
*CAP
1 *166:A 0.000538072
2 *154:X 0.00034994
3 *30:10 0.000888012
4 *166:A *34:12 0.000194318
5 *30:10 *38:12 0.000128391
6 *142:B *30:10 9.41704e-05
7 *155:B1_N *166:A 1.22803e-05
8 *21:10 *30:10 0.000136743
9 *23:27 *166:A 0
10 *26:14 *166:A 0.000223961
*RES
1 *154:X *30:10 44.8357 
2 *30:10 *166:A 49.0407 
*END

*D_NET *31 0.00190432
*CONN
*I *167:A I *D sky130_fd_sc_hd__buf_2
*I *155:Y O *D sky130_fd_sc_hd__a21boi_1
*CAP
1 *167:A 0.000206908
2 *155:Y 0.000631139
3 *31:8 0.000838048
4 *167:A *43:12 0
5 *23:27 *31:8 0.000228221
*RES
1 *155:Y *31:8 46.2443 
2 *31:8 *167:A 42.0186 
*END

*D_NET *32 0.00185796
*CONN
*I *168:A I *D sky130_fd_sc_hd__buf_2
*I *143:Y O *D sky130_fd_sc_hd__nor2_1
*CAP
1 *168:A 0
2 *143:Y 0.000557925
3 *32:10 0.000557925
4 *32:10 *141:A 0.000123506
5 *32:10 *33:14 0.000141869
6 *32:10 *39:54 0.000476732
*RES
1 *143:Y *32:10 46.7207 
2 *32:10 *168:A 38 
*END

*D_NET *33 0.00460616
*CONN
*I *169:A I *D sky130_fd_sc_hd__buf_2
*I *144:Y O *D sky130_fd_sc_hd__xnor2_1
*CAP
1 *169:A 0
2 *144:Y 0.00097959
3 *33:14 0.000434865
4 *33:6 0.00141446
5 *33:14 *35:14 0.000700315
6 *33:14 *39:66 4.85126e-05
7 out[4] *33:14 8.62073e-06
8 *20:16 *33:6 0.000877934
9 *32:10 *33:14 0.000141869
*RES
1 *144:Y *33:6 39.3436 
2 *33:6 *33:14 41.3307 
3 *33:14 *169:A 23 
*END

*D_NET *34 0.004377
*CONN
*I *170:A I *D sky130_fd_sc_hd__buf_2
*I *148:X O *D sky130_fd_sc_hd__clkbuf_1
*CAP
1 *170:A 0
2 *148:X 0
3 *34:12 0.00104041
4 *34:6 0.00104041
5 *34:12 *35:14 0
6 *155:B1_N *34:12 0.000169683
7 *166:A *34:12 0.000194318
8 *19:18 *34:12 0
9 *19:36 *34:12 0.000802953
10 *19:47 *34:12 0.000423289
11 *22:6 *34:12 0.000128401
12 *22:10 *34:12 0
13 *26:14 *34:12 0.000346232
14 *29:26 *34:12 0.000231293
*RES
1 *148:X *34:6 38 
2 *34:6 *34:12 42.3221 
3 *34:12 *170:A 23 
*END

*D_NET *35 0.00605166
*CONN
*I *171:A I *D sky130_fd_sc_hd__clkbuf_4
*I *149:X O *D sky130_fd_sc_hd__xor2_1
*CAP
1 *171:A 0
2 *149:X 0.00109537
3 *35:14 0.000669989
4 *35:6 0.00176536
5 *35:14 *39:66 0.000111852
6 *35:14 *43:12 0.00037813
7 out[5] *35:14 0
8 *20:8 *35:6 0.000261333
9 *22:10 *35:14 0.000150498
10 *23:14 *35:6 0.000918801
11 *33:14 *35:14 0.000700315
12 *34:12 *35:14 0
*RES
1 *149:X *35:6 38.8671 
2 *35:6 *35:14 48.7257 
3 *35:14 *171:A 23 
*END

*D_NET *36 0.00930726
*CONN
*I *152:A1 I *D sky130_fd_sc_hd__o21ai_1
*I *151:B I *D sky130_fd_sc_hd__or3_1
*I *140:C I *D sky130_fd_sc_hd__or4_2
*I *150:A I *D sky130_fd_sc_hd__xor2_1
*I *158:X O *D sky130_fd_sc_hd__buf_1
*CAP
1 *152:A1 0.000921907
2 *151:B 5.19731e-05
3 *140:C 0
4 *150:A 0.0001078
5 *158:X 0.000122702
6 *36:27 0.000322184
7 *36:12 0.000735891
8 *36:10 0.00114775
9 *36:6 0.00183448
10 *150:A *39:24 0.000213311
11 *150:A *41:37 2.64616e-05
12 *36:6 *37:12 1.21972e-05
13 *36:12 *39:24 6.15719e-05
14 *36:27 *37:22 0.000266094
15 *36:27 *38:18 0.00040116
16 *36:27 *39:24 2.64616e-05
17 *150:B *150:A 0.000222141
18 *151:C *151:B 1.75792e-05
19 *19:6 *36:27 0.000128152
20 *19:10 *36:27 0.000313874
21 *28:8 *36:10 3.0647e-05
22 *28:10 *36:10 0.000649909
23 *28:16 *150:A 6.48142e-05
24 *28:16 *36:10 4.17929e-05
25 *28:16 *36:12 0.000390645
26 *28:31 *36:27 0.000428781
27 *28:58 *152:A1 0.000715753
28 *28:58 *36:6 5.12254e-05
*RES
1 *158:X *36:6 24.5743 
2 *36:6 *36:10 33.8086 
3 *36:10 *36:12 7.54 
4 *36:12 *150:A 41.5836 
5 *36:12 *36:27 28.0086 
6 *36:27 *140:C 23 
7 *36:10 *151:B 38.6214 
8 *36:6 *152:A1 38.2871 
*END

*D_NET *37 0.00837736
*CONN
*I *152:B1 I *D sky130_fd_sc_hd__o21ai_1
*I *151:A I *D sky130_fd_sc_hd__or3_1
*I *140:B I *D sky130_fd_sc_hd__or4_2
*I *159:X O *D sky130_fd_sc_hd__buf_1
*CAP
1 *152:B1 0.000348974
2 *151:A 0.000119362
3 *140:B 0
4 *159:X 7.87035e-05
5 *37:22 0.0010111
6 *37:16 0.00188993
7 *37:12 0.00131172
8 *37:8 0.000281978
9 *37:22 *41:37 6.33614e-05
10 *153:A *37:16 5.3835e-05
11 *153:A *37:22 0.000313941
12 *19:6 *37:22 9.5877e-05
13 *19:10 *37:22 0.000311549
14 *25:25 *37:16 0.000786789
15 *27:14 *37:16 0
16 *27:14 *37:22 0
17 *28:10 *37:8 0.000141879
18 *28:58 *152:B1 0.000930246
19 *28:58 *37:12 0.000359819
20 *36:6 *37:12 1.21972e-05
21 *36:27 *37:22 0.000266094
*RES
1 *159:X *37:8 39.9057 
2 *37:8 *37:12 19.4329 
3 *37:12 *37:16 31.6957 
4 *37:16 *37:22 32.5657 
5 *37:22 *140:B 23 
6 *37:16 *151:A 39.5743 
7 *37:12 *152:B1 33.15 
*END

*D_NET *38 0.00510132
*CONN
*I *155:A1 I *D sky130_fd_sc_hd__a21boi_1
*I *140:A I *D sky130_fd_sc_hd__or4_2
*I *160:X O *D sky130_fd_sc_hd__clkbuf_1
*CAP
1 *155:A1 0.00015705
2 *140:A 0
3 *160:X 0.000615808
4 *38:18 0.00105268
5 *38:12 0.00182554
6 *146:D *38:18 0.000184825
7 *156:A *38:18 0.000143655
8 *19:6 *38:18 4.95081e-05
9 *19:18 *38:18 6.16439e-05
10 *19:36 *38:18 0
11 *20:16 *38:18 6.60455e-05
12 *23:8 *38:18 0
13 *23:27 *155:A1 0
14 *23:27 *38:18 0
15 *27:14 *38:12 5.56279e-05
16 *27:14 *38:18 0
17 *28:31 *38:18 0.000359381
18 *30:10 *38:12 0.000128391
19 *36:27 *38:18 0.00040116
*RES
1 *160:X *38:12 48.7921 
2 *38:12 *38:18 37.7857 
3 *38:18 *140:A 23 
4 *38:12 *155:A1 40.9621 
*END

*D_NET *39 0.0105051
*CONN
*I *141:A I *D sky130_fd_sc_hd__nor2_1
*I *142:A I *D sky130_fd_sc_hd__and2_1
*I *146:A I *D sky130_fd_sc_hd__or4_1
*I *145:A1 I *D sky130_fd_sc_hd__o31a_1
*I *161:X O *D sky130_fd_sc_hd__buf_1
*CAP
1 *141:A 0.000142077
2 *142:A 0
3 *146:A 0
4 *145:A1 1.59622e-05
5 *161:X 0.00010943
6 *39:66 0.000273405
7 *39:54 0.00144557
8 *39:43 0.00071504
9 *39:24 0.000818601
10 *39:10 0.00167382
11 *39:8 0.00129566
12 *145:A1 *42:8 1.94693e-05
13 *39:10 *40:27 0.00030233
14 *39:24 *145:A2 0.000120159
15 *39:24 *40:27 0.000104869
16 *39:24 *41:18 7.76265e-05
17 *39:24 *41:37 0
18 *39:43 *146:B 7.54833e-05
19 *39:43 *40:8 1.59094e-05
20 *39:43 *41:37 0.000147408
21 *39:54 *40:27 0.000247687
22 *39:66 *43:12 0.000400895
23 out[3] *39:66 0
24 *141:B *141:A 0.000180218
25 *141:B *39:54 0.000390679
26 *142:B *39:66 1.32314e-05
27 *150:A *39:24 0.000213311
28 *150:B *39:24 1.22906e-05
29 *7:17 *39:8 3.7122e-06
30 *7:17 *39:54 0
31 *8:17 *39:24 0
32 *8:17 *39:43 1.24376e-05
33 *19:18 *145:A1 5.73309e-05
34 *20:8 *141:A 2.4754e-05
35 *20:8 *39:54 6.82514e-05
36 *23:14 *39:54 0.000361307
37 *26:14 *39:43 7.66924e-05
38 *27:8 *39:43 0.000232734
39 *28:31 *39:24 8.06804e-06
40 *32:10 *141:A 0.000123506
41 *32:10 *39:54 0.000476732
42 *33:14 *39:66 4.85126e-05
43 *35:14 *39:66 0.000111852
44 *36:12 *39:24 6.15719e-05
45 *36:27 *39:24 2.64616e-05
*RES
1 *161:X *39:8 39.0979 
2 *39:8 *39:10 4.01857 
3 *39:10 *39:24 43.5679 
4 *39:24 *145:A1 38.6214 
5 *39:10 *39:43 28.195 
6 *39:43 *146:A 23 
7 *39:8 *39:54 36.5636 
8 *39:54 *39:66 37.0429 
9 *39:66 *142:A 23 
10 *39:54 *141:A 26.5007 
*END

*D_NET *40 0.00592906
*CONN
*I *146:B I *D sky130_fd_sc_hd__or4_1
*I *144:A I *D sky130_fd_sc_hd__xnor2_1
*I *145:A2 I *D sky130_fd_sc_hd__o31a_1
*I *162:X O *D sky130_fd_sc_hd__buf_1
*CAP
1 *146:B 0.000694138
2 *144:A 0
3 *145:A2 0.000345212
4 *162:X 0
5 *40:27 0.000370943
6 *40:8 0.000758412
7 *40:4 0.000736394
8 *145:A2 *41:18 1.47563e-05
9 *145:A2 *42:12 0.000543025
10 *40:27 *42:12 0.000675708
11 *9:11 *145:A2 0.00026919
12 *26:14 *146:B 0.000531515
13 *28:10 *40:27 0.000123326
14 *39:10 *40:27 0.00030233
15 *39:24 *145:A2 0.000120159
16 *39:24 *40:27 0.000104869
17 *39:43 *146:B 7.54833e-05
18 *39:43 *40:8 1.59094e-05
19 *39:54 *40:27 0.000247687
*RES
1 *162:X *40:4 23 
2 *40:4 *40:8 15.6214 
3 *40:8 *145:A2 47.8393 
4 *40:8 *40:27 27.7393 
5 *40:27 *144:A 23 
6 *40:4 *146:B 33.1707 
*END

*D_NET *41 0.00342478
*CONN
*I *146:C I *D sky130_fd_sc_hd__or4_1
*I *145:B1 I *D sky130_fd_sc_hd__o31a_1
*I *163:X O *D sky130_fd_sc_hd__clkbuf_1
*CAP
1 *146:C 0
2 *145:B1 0
3 *163:X 6.27375e-05
4 *41:37 0.000790029
5 *41:18 0.000168569
6 *41:6 0.00102133
7 *41:18 *42:8 3.22879e-05
8 *41:18 *42:12 0.000223034
9 *145:A2 *41:18 1.47563e-05
10 *150:A *41:37 2.64616e-05
11 *150:B *41:18 9.26005e-05
12 *150:B *41:37 2.81281e-05
13 *19:18 *41:18 4.32967e-05
14 *19:18 *41:37 0
15 *26:14 *41:37 0.000444845
16 *27:8 *41:37 0.000188307
17 *37:22 *41:37 6.33614e-05
18 *39:24 *41:18 7.76265e-05
19 *39:24 *41:37 0
20 *39:43 *41:37 0.000147408
*RES
1 *163:X *41:6 23.6214 
2 *41:6 *41:18 35.4064 
3 *41:18 *145:B1 23 
4 *41:6 *41:37 44.8314 
5 *41:37 *146:C 23 
*END

*D_NET *42 0.00351304
*CONN
*I *149:A I *D sky130_fd_sc_hd__xor2_1
*I *164:X O *D sky130_fd_sc_hd__clkbuf_1
*CAP
1 *149:A 0
2 *164:X 0.00017405
3 *42:12 0.000402957
4 *42:8 0.000577008
5 *145:A1 *42:8 1.94693e-05
6 *145:A2 *42:12 0.000543025
7 *150:B *42:12 5.09885e-05
8 *19:18 *42:8 1.6781e-05
9 *22:6 *42:8 5.79559e-05
10 *28:10 *42:12 0.000185104
11 *28:16 *42:12 0.000554674
12 *40:27 *42:12 0.000675708
13 *41:18 *42:8 3.22879e-05
14 *41:18 *42:12 0.000223034
*RES
1 *164:X *42:8 40.5271 
2 *42:8 *42:12 30.9914 
3 *42:12 *149:A 23 
*END

*D_NET *43 0.00425916
*CONN
*I *172:A I *D sky130_fd_sc_hd__buf_2
*I *156:X O *D sky130_fd_sc_hd__clkbuf_1
*CAP
1 *172:A 0
2 *156:X 4.2104e-05
3 *43:12 0.00098172
4 *43:8 0.00102382
5 out[2] *43:12 0
6 *156:A *43:8 1.73399e-05
7 *167:A *43:12 0
8 *22:10 *43:12 0.00141515
9 *26:14 *43:12 0
10 *29:26 *43:12 0
11 *35:14 *43:12 0.00037813
12 *39:66 *43:12 0.000400895
*RES
1 *156:X *43:8 38.6214 
2 *43:8 *43:12 42.26 
3 *43:12 *172:A 23 
*END
