*SPEF "ieee 1481-1999"
*DESIGN "twos_complement"
*DATE "13:34:37 Sunday April 27, 2025"
*VENDOR "The OpenROAD Project"
*PROGRAM "OpenROAD"
*VERSION "b16bda7e82721d10566ff7e2b68f1ff0be9f9e38"
*DESIGN_FLOW "NAME_SCOPE LOCAL" "PIN_CAP NONE"
*DIVIDER /
*DELIMITER :
*BUS_DELIMITER []
*T_UNIT 1 NS
*C_UNIT 1 PF
*R_UNIT 1 OHM
*L_UNIT 1 HENRY

*NAME_MAP
*3 in[0]
*4 in[1]
*5 in[2]
*6 in[3]
*7 in[4]
*8 in[5]
*9 in[6]
*10 in[7]
*11 out[0]
*12 out[1]
*13 out[2]
*14 out[3]
*15 out[4]
*16 out[5]
*17 out[6]
*18 out[7]
*19 _00_
*20 _01_
*21 _02_
*22 _03_
*23 _04_
*24 _05_
*25 _06_
*26 _07_
*27 _08_
*28 net1
*29 net10
*30 net11
*31 net12
*32 net13
*33 net14
*34 net15
*35 net16
*36 net2
*37 net3
*38 net4
*39 net5
*40 net6
*41 net7
*42 net8
*43 net9
*44 FILLER_0_0_13
*45 FILLER_0_0_25
*46 FILLER_0_0_29
*47 FILLER_0_0_37
*48 FILLER_0_10_18
*49 FILLER_0_10_26
*50 FILLER_0_10_29
*51 FILLER_0_10_41
*52 FILLER_0_10_6
*53 FILLER_0_11_18
*54 FILLER_0_11_30
*55 FILLER_0_11_34
*56 FILLER_0_11_39
*57 FILLER_0_11_47
*58 FILLER_0_11_6
*59 FILLER_0_12_13
*60 FILLER_0_12_25
*61 FILLER_0_12_29
*62 FILLER_0_12_37
*63 FILLER_0_1_14
*64 FILLER_0_1_26
*65 FILLER_0_1_38
*66 FILLER_0_1_46
*67 FILLER_0_1_6
*68 FILLER_0_2_15
*69 FILLER_0_2_27
*70 FILLER_0_2_29
*71 FILLER_0_2_3
*72 FILLER_0_2_33
*73 FILLER_0_2_44
*74 FILLER_0_3_10
*75 FILLER_0_3_16
*76 FILLER_0_3_24
*77 FILLER_0_3_31
*78 FILLER_0_3_43
*79 FILLER_0_3_6
*80 FILLER_0_4_15
*81 FILLER_0_4_27
*82 FILLER_0_4_29
*83 FILLER_0_4_3
*84 FILLER_0_4_41
*85 FILLER_0_4_47
*86 FILLER_0_5_14
*87 FILLER_0_5_26
*88 FILLER_0_5_38
*89 FILLER_0_5_6
*90 FILLER_0_6_10
*91 FILLER_0_6_22
*92 FILLER_0_6_32
*93 FILLER_0_6_44
*94 FILLER_0_7_10
*95 FILLER_0_7_22
*96 FILLER_0_7_34
*97 FILLER_0_7_46
*98 FILLER_0_8_18
*99 FILLER_0_8_22
*100 FILLER_0_8_29
*101 FILLER_0_8_37
*102 FILLER_0_8_6
*103 FILLER_0_9_15
*104 FILLER_0_9_23
*105 FILLER_0_9_3
*106 FILLER_0_9_40
*107 PHY_EDGE_ROW_0_Left_13
*108 PHY_EDGE_ROW_0_Right_0
*109 PHY_EDGE_ROW_10_Left_23
*110 PHY_EDGE_ROW_10_Right_10
*111 PHY_EDGE_ROW_11_Left_24
*112 PHY_EDGE_ROW_11_Right_11
*113 PHY_EDGE_ROW_12_Left_25
*114 PHY_EDGE_ROW_12_Right_12
*115 PHY_EDGE_ROW_1_Left_14
*116 PHY_EDGE_ROW_1_Right_1
*117 PHY_EDGE_ROW_2_Left_15
*118 PHY_EDGE_ROW_2_Right_2
*119 PHY_EDGE_ROW_3_Left_16
*120 PHY_EDGE_ROW_3_Right_3
*121 PHY_EDGE_ROW_4_Left_17
*122 PHY_EDGE_ROW_4_Right_4
*123 PHY_EDGE_ROW_5_Left_18
*124 PHY_EDGE_ROW_5_Right_5
*125 PHY_EDGE_ROW_6_Left_19
*126 PHY_EDGE_ROW_6_Right_6
*127 PHY_EDGE_ROW_7_Left_20
*128 PHY_EDGE_ROW_7_Right_7
*129 PHY_EDGE_ROW_8_Left_21
*130 PHY_EDGE_ROW_8_Right_8
*131 PHY_EDGE_ROW_9_Left_22
*132 PHY_EDGE_ROW_9_Right_9
*133 TAP_TAPCELL_ROW_0_26
*134 TAP_TAPCELL_ROW_10_31
*135 TAP_TAPCELL_ROW_12_32
*136 TAP_TAPCELL_ROW_2_27
*137 TAP_TAPCELL_ROW_4_28
*138 TAP_TAPCELL_ROW_6_29
*139 TAP_TAPCELL_ROW_8_30
*140 _09_
*141 _10_
*142 _11_
*143 _12_
*144 _13_
*145 _14_
*146 _15_
*147 _16_
*148 _17_
*149 _18_
*150 _19_
*151 _20_
*152 _21_
*153 _22_
*154 _23_
*155 _24_
*156 _25_
*157 input1
*158 input2
*159 input3
*160 input4
*161 input5
*162 input6
*163 input7
*164 input8
*165 output10
*166 output11
*167 output12
*168 output13
*169 output14
*170 output15
*171 output16
*172 output9

*PORTS
in[0] I
in[1] I
in[2] I
in[3] I
in[4] I
in[5] I
in[6] I
in[7] I
out[0] O
out[1] O
out[2] O
out[3] O
out[4] O
out[5] O
out[6] O
out[7] O

*D_NET *3 0.000986291
*CONN
*P in[0] I
*I *157:A I *D sky130_fd_sc_hd__dlymetal6s2s_1
*CAP
1 in[0] 0.000493145
2 *157:A 0.000493145
3 *157:A *158:A 0
*RES
1 in[0] *157:A 9.94677 
*END

*D_NET *4 0.000708939
*CONN
*P in[1] I
*I *158:A I *D sky130_fd_sc_hd__buf_1
*CAP
1 in[1] 0.00035447
2 *158:A 0.00035447
3 *158:A *159:A 0
4 *158:A *28:8 0
5 *157:A *158:A 0
*RES
1 in[1] *158:A 8.3643 
*END

*D_NET *5 0.000531065
*CONN
*P in[2] I
*I *159:A I *D sky130_fd_sc_hd__buf_1
*CAP
1 in[2] 0.000265532
2 *159:A 0.000265532
3 *159:A *160:A 0
4 *158:A *159:A 0
*RES
1 in[2] *159:A 6.8343 
*END

*D_NET *6 0.000645774
*CONN
*P in[3] I
*I *160:A I *D sky130_fd_sc_hd__clkbuf_1
*CAP
1 in[3] 0.000322887
2 *160:A 0.000322887
3 *160:A *161:A 0
4 *160:A *28:10 0
5 *159:A *160:A 0
*RES
1 in[3] *160:A 7.8543 
*END

*D_NET *7 0.000569745
*CONN
*P in[4] I
*I *161:A I *D sky130_fd_sc_hd__buf_1
*CAP
1 in[4] 0.000283048
2 *161:A 0.000283048
3 *161:A *162:A 0
4 *161:A *39:8 3.64998e-06
5 *161:A *39:54 0
6 *160:A *161:A 0
*RES
1 in[4] *161:A 7.0893 
*END

*D_NET *8 0.000679292
*CONN
*P in[5] I
*I *162:A I *D sky130_fd_sc_hd__buf_1
*CAP
1 in[5] 0.000334208
2 *162:A 0.000334208
3 *162:A *145:A1 0
4 *162:A *146:A 1.08758e-05
5 *162:A *163:A 0
6 *161:A *162:A 0
*RES
1 in[5] *162:A 8.1093 
*END

*D_NET *9 0.000860236
*CONN
*P in[6] I
*I *163:A I *D sky130_fd_sc_hd__clkbuf_1
*CAP
1 in[6] 0.000318095
2 *163:A 0.000318095
3 *163:A *145:A2 0.000224045
4 *163:A *164:A 0
5 *162:A *163:A 0
*RES
1 in[6] *163:A 7.65177 
*END

*D_NET *10 0.00233729
*CONN
*P in[7] I
*I *164:A I *D sky130_fd_sc_hd__clkbuf_1
*CAP
1 in[7] 0.000921218
2 *164:A 0.000921218
3 *164:A *145:A3 0.000311945
4 *164:A *147:A_N 0.000182914
5 *163:A *164:A 0
*RES
1 in[7] *164:A 14.3123 
*END

*D_NET *11 0.00109227
*CONN
*P out[0] O
*I *172:X O *D sky130_fd_sc_hd__buf_2
*CAP
1 out[0] 0.000546133
2 *172:X 0.000546133
3 out[0] out[1] 0
*RES
1 *172:X out[0] 9.66983 
*END

*D_NET *12 0.000411239
*CONN
*P out[1] O
*I *165:X O *D sky130_fd_sc_hd__buf_2
*CAP
1 out[1] 0.00020562
2 *165:X 0.00020562
3 out[1] out[2] 0
4 out[0] out[1] 0
*RES
1 *165:X out[1] 4.84677 
*END

*D_NET *13 0.000410041
*CONN
*P out[2] O
*I *166:X O *D sky130_fd_sc_hd__buf_2
*CAP
1 out[2] 0.00020502
2 *166:X 0.00020502
3 out[2] out[3] 0
4 out[2] *172:A 0
5 out[1] out[2] 0
*RES
1 *166:X out[2] 4.84677 
*END

*D_NET *14 0.000539861
*CONN
*P out[3] O
*I *167:X O *D sky130_fd_sc_hd__buf_2
*CAP
1 out[3] 0.00026993
2 *167:X 0.00026993
3 out[3] out[4] 0
4 out[3] *142:A 0
5 out[2] out[3] 0
*RES
1 *167:X out[3] 5.86677 
*END

*D_NET *15 0.000418861
*CONN
*P out[4] O
*I *168:X O *D sky130_fd_sc_hd__buf_2
*CAP
1 out[4] 0.000205096
2 *168:X 0.000205096
3 out[4] out[5] 0
4 out[4] *169:A 8.66976e-06
5 out[3] out[4] 0
*RES
1 *168:X out[4] 4.84677 
*END

*D_NET *16 0.000540837
*CONN
*P out[5] O
*I *169:X O *D sky130_fd_sc_hd__buf_2
*CAP
1 out[5] 0.000270419
2 *169:X 0.000270419
3 out[5] out[6] 0
4 out[5] *171:A 0
5 out[4] out[5] 0
*RES
1 *169:X out[5] 5.86677 
*END

*D_NET *17 0.000727554
*CONN
*P out[6] O
*I *170:X O *D sky130_fd_sc_hd__buf_2
*CAP
1 out[6] 0.000363777
2 *170:X 0.000363777
3 out[6] out[7] 0
4 out[5] out[6] 0
*RES
1 *170:X out[6] 5.19637 
*END

*D_NET *18 0.000971234
*CONN
*P out[7] O
*I *171:X O *D sky130_fd_sc_hd__clkbuf_4
*CAP
1 out[7] 0.000485617
2 *171:X 0.000485617
3 out[6] out[7] 0
*RES
1 *171:X out[7] 10.1435 
*END

*D_NET *19 0.00825299
*CONN
*I *155:B1_N I *D sky130_fd_sc_hd__a21boi_1
*I *142:B I *D sky130_fd_sc_hd__and2_1
*I *141:B I *D sky130_fd_sc_hd__nor2_1
*I *146:D I *D sky130_fd_sc_hd__or4_1
*I *145:A3 I *D sky130_fd_sc_hd__o31a_1
*I *140:X O *D sky130_fd_sc_hd__or4_2
*CAP
1 *155:B1_N 0.000112753
2 *142:B 0.000180268
3 *141:B 0.000106832
4 *146:D 9.29891e-05
5 *145:A3 0.000713796
6 *140:X 0.000111896
7 *19:47 0.000392442
8 *19:36 0.000441226
9 *19:10 0.000851488
10 *19:6 0.000391572
11 *141:B *141:A 0.000158066
12 *141:B *20:8 0.000489968
13 *141:B *39:54 0.000342778
14 *142:B *142:A 1.16578e-05
15 *142:B *143:B 0.000108761
16 *142:B *166:A 8.23457e-05
17 *145:A3 *140:A 5.16348e-05
18 *145:A3 *145:A1 4.94457e-05
19 *145:A3 *145:B1 3.92902e-05
20 *145:A3 *146:C 0
21 *145:A3 *147:A_N 0.00012244
22 *145:A3 *149:A 1.74015e-05
23 *145:A3 *170:A 0
24 *146:D *140:A 0.000155234
25 *155:B1_N *147:B 0.000100332
26 *155:B1_N *148:A 5.78206e-05
27 *155:B1_N *166:A 1.1561e-05
28 *155:B1_N *170:A 0.000141606
29 *19:6 *140:A 4.60584e-05
30 *19:6 *140:B 8.40269e-05
31 *19:6 *140:C 0.000112075
32 *19:6 *156:A 2.96334e-05
33 *19:10 *140:B 0.000273872
34 *19:10 *140:C 0.000275031
35 *19:36 *140:A 0
36 *19:36 *143:B 9.50342e-06
37 *19:36 *165:A 0.000160673
38 *19:36 *170:A 0.000670254
39 *19:36 *23:8 0.00026093
40 *19:47 *143:B 0.000304941
41 *19:47 *147:B 2.42236e-05
42 *19:47 *170:A 0.000354215
43 *164:A *145:A3 0.000311945
*RES
1 *140:X *19:6 4.12 
2 *19:6 *19:10 4.52 
3 *19:10 *145:A3 15.915 
4 *19:10 *146:D 5.49 
5 *19:6 *19:36 9.755 
6 *19:36 *141:B 8.19 
7 *19:36 *19:47 4.185 
8 *19:47 *142:B 6.81 
9 *19:47 *155:B1_N 6.645 
*END

*D_NET *20 0.00325217
*CONN
*I *143:A I *D sky130_fd_sc_hd__nor2_1
*I *144:B I *D sky130_fd_sc_hd__xnor2_1
*I *141:Y O *D sky130_fd_sc_hd__nor2_1
*CAP
1 *143:A 0
2 *144:B 0.000466281
3 *141:Y 0.000221986
4 *20:8 0.000688268
5 *144:B *140:A 6.86732e-05
6 *144:B *147:B 0.000126679
7 *144:B *169:A 0.000759751
8 *144:B *23:8 5.16348e-05
9 *20:8 *141:A 2.30292e-05
10 *20:8 *149:B 4.66108e-05
11 *20:8 *171:A 0.000245411
12 *20:8 *39:54 6.38806e-05
13 *141:B *20:8 0.000489968
*RES
1 *141:Y *20:8 7.93 
2 *20:8 *144:B 15.785 
3 *20:8 *143:A 1.6 
*END

*D_NET *21 0.00148212
*CONN
*I *143:B I *D sky130_fd_sc_hd__nor2_1
*I *142:X O *D sky130_fd_sc_hd__and2_1
*CAP
1 *143:B 0.000308434
2 *142:X 0.000308434
3 *143:B *147:B 0.000270647
4 *143:B *166:A 0.000119762
5 *143:B *23:8 5.16348e-05
6 *142:B *143:B 0.000108761
7 *19:36 *143:B 9.50342e-06
8 *19:47 *143:B 0.000304941
*RES
1 *142:X *143:B 13.74 
*END

*D_NET *22 0.00485264
*CONN
*I *147:A_N I *D sky130_fd_sc_hd__and2b_1
*I *145:X O *D sky130_fd_sc_hd__o31a_1
*CAP
1 *147:A_N 0.00120344
2 *145:X 0.00120344
3 *147:A_N *149:A 4.89295e-05
4 *147:A_N *153:B 0.000441255
5 *147:A_N *165:A 0.00019668
6 *147:A_N *170:A 0.00011964
7 *147:A_N *171:A 0.000153063
8 *147:A_N *172:A 0.00118084
9 *145:A3 *147:A_N 0.00012244
10 *164:A *147:A_N 0.000182914
*RES
1 *145:X *147:A_N 35.61 
*END

*D_NET *23 0.00423412
*CONN
*I *147:B I *D sky130_fd_sc_hd__and2b_1
*I *149:B I *D sky130_fd_sc_hd__xor2_1
*I *146:X O *D sky130_fd_sc_hd__or4_1
*CAP
1 *147:B 0.000374273
2 *149:B 0.00026472
3 *146:X 0.000251319
4 *23:8 0.000890312
5 *147:B *140:A 0
6 *147:B *148:A 7.15196e-05
7 *147:B *155:A1 0
8 *147:B *166:A 0
9 *147:B *167:A 0.000197364
10 *149:B *171:A 0.000795486
11 *149:B *39:54 0.000340994
12 *23:8 *140:A 0
13 *23:8 *165:A 0.000115445
14 *143:B *147:B 0.000270647
15 *143:B *23:8 5.16348e-05
16 *144:B *147:B 0.000126679
17 *144:B *23:8 5.16348e-05
18 *155:B1_N *147:B 0.000100332
19 *19:36 *23:8 0.00026093
20 *19:47 *147:B 2.42236e-05
21 *20:8 *149:B 4.66108e-05
*RES
1 *146:X *23:8 9.57 
2 *23:8 *149:B 12.345 
3 *23:8 *147:B 12.525 
*END

*D_NET *24 0.000263985
*CONN
*I *148:A I *D sky130_fd_sc_hd__clkbuf_1
*I *147:X O *D sky130_fd_sc_hd__and2b_1
*CAP
1 *148:A 6.73223e-05
2 *147:X 6.73223e-05
3 *147:B *148:A 7.15196e-05
4 *155:B1_N *148:A 5.78206e-05
*RES
1 *147:X *148:A 4.7 
*END

*D_NET *25 0.002715
*CONN
*I *155:A2 I *D sky130_fd_sc_hd__a21boi_1
*I *153:A I *D sky130_fd_sc_hd__and2_1
*I *151:X O *D sky130_fd_sc_hd__or3_1
*CAP
1 *155:A2 0.00063575
2 *153:A 0.00024412
3 *151:X 0
4 *25:6 0.00087987
5 *153:A *140:B 0.000268878
6 *153:A *37:16 4.35665e-05
7 *155:A2 *37:16 0.000642817
*RES
1 *151:X *25:6 3.6 
2 *25:6 *153:A 8.85 
3 *25:6 *155:A2 15.6 
*END

*D_NET *26 0.00425188
*CONN
*I *153:B I *D sky130_fd_sc_hd__and2_1
*I *152:Y O *D sky130_fd_sc_hd__o21ai_1
*CAP
1 *153:B 0.00102666
2 *152:Y 0.00102666
3 *153:B *146:A 7.22898e-05
4 *153:B *146:B 0.000461617
5 *153:B *146:C 0.000386412
6 *153:B *154:A 2.16833e-05
7 *153:B *165:A 0.000252783
8 *153:B *166:A 0.000208976
9 *153:B *170:A 0.000353539
10 *153:B *172:A 0
11 *147:A_N *153:B 0.000441255
*RES
1 *152:Y *153:B 32.28 
*END

*D_NET *27 0.00184072
*CONN
*I *154:A I *D sky130_fd_sc_hd__clkbuf_1
*I *153:X O *D sky130_fd_sc_hd__and2_1
*CAP
1 *154:A 0.000706049
2 *153:X 0.000706049
3 *154:A *140:A 0
4 *154:A *140:B 0
5 *154:A *146:A 0.000198339
6 *154:A *146:C 0.000160831
7 *154:A *37:16 0
8 *154:A *38:12 4.77719e-05
9 *153:B *154:A 2.16833e-05
*RES
1 *153:X *154:A 19.53 
*END

*D_NET *28 0.00880511
*CONN
*I *152:A2 I *D sky130_fd_sc_hd__o21ai_1
*I *151:C I *D sky130_fd_sc_hd__or3_1
*I *156:A I *D sky130_fd_sc_hd__clkbuf_1
*I *140:D I *D sky130_fd_sc_hd__or4_2
*I *150:B I *D sky130_fd_sc_hd__xor2_1
*I *157:X O *D sky130_fd_sc_hd__dlymetal6s2s_1
*CAP
1 *152:A2 0.000215092
2 *151:C 7.84937e-05
3 *156:A 0.00021339
4 *140:D 0
5 *150:B 0.000112373
6 *157:X 0.000101893
7 *28:31 0.000736705
8 *28:16 0.000823536
9 *28:10 0.00073324
10 *28:8 0.000783883
11 *150:B *145:A1 1.15688e-05
12 *150:B *145:B1 7.70758e-05
13 *150:B *146:C 2.72462e-05
14 *150:B *149:A 4.76581e-05
15 *150:B *150:A 0.00018701
16 *151:C *151:B 1.71824e-05
17 *152:A2 *152:A1 0.000657264
18 *152:A2 *152:B1 0.000809629
19 *152:A2 *36:6 4.80285e-05
20 *152:A2 *37:12 0.000308226
21 *156:A *140:A 0.00012657
22 *156:A *172:A 1.7386e-05
23 *28:8 *36:10 2.86623e-05
24 *28:10 *144:A 0.000113745
25 *28:10 *149:A 0.000154488
26 *28:10 *36:10 0.000601641
27 *28:10 *37:12 0.00011852
28 *28:16 *149:A 0.000475365
29 *28:16 *150:A 5.4003e-05
30 *28:16 *36:10 3.84331e-05
31 *28:16 *36:12 0.000341493
32 *28:31 *140:A 0.000314737
33 *28:31 *140:C 0.000392201
34 *28:31 *145:A1 8.73389e-06
35 *158:A *28:8 0
36 *160:A *28:10 0
37 *19:6 *156:A 2.96334e-05
*RES
1 *157:X *28:8 5.49 
2 *28:8 *28:10 12.345 
3 *28:10 *28:16 7.29 
4 *28:16 *150:B 6.63 
5 *28:16 *28:31 11.42 
6 *28:31 *140:D 1.6 
7 *28:31 *156:A 5.17 
8 *28:10 *151:C 4.74 
9 *28:8 *152:A2 14.4 
*END

*D_NET *29 0.00661834
*CONN
*I *165:A I *D sky130_fd_sc_hd__buf_2
*I *150:X O *D sky130_fd_sc_hd__xor2_1
*CAP
1 *165:A 0.00273773
2 *150:X 0.00273773
3 *165:A *166:A 0.000102863
4 *165:A *170:A 0.00021133
5 *165:A *172:A 0.000103105
6 *147:A_N *165:A 0.00019668
7 *153:B *165:A 0.000252783
8 *19:36 *165:A 0.000160673
9 *23:8 *165:A 0.000115445
*RES
1 *150:X *165:A 17.2395 
*END

*D_NET *30 0.00221405
*CONN
*I *166:A I *D sky130_fd_sc_hd__buf_2
*I *154:X O *D sky130_fd_sc_hd__clkbuf_1
*CAP
1 *166:A 0.000703292
2 *154:X 0.000703292
3 *166:A *170:A 0.000162325
4 *166:A *38:12 0.000119631
5 *142:B *166:A 8.23457e-05
6 *143:B *166:A 0.000119762
7 *147:B *166:A 0
8 *153:B *166:A 0.000208976
9 *155:B1_N *166:A 1.1561e-05
10 *165:A *166:A 0.000102863
*RES
1 *154:X *166:A 20.145 
*END

*D_NET *31 0.00160166
*CONN
*I *167:A I *D sky130_fd_sc_hd__buf_2
*I *155:Y O *D sky130_fd_sc_hd__a21boi_1
*CAP
1 *167:A 0.000702148
2 *155:Y 0.000702148
3 *167:A *172:A 0
4 *147:B *167:A 0.000197364
*RES
1 *155:Y *167:A 16.08 
*END

*D_NET *32 0.0015177
*CONN
*I *168:A I *D sky130_fd_sc_hd__buf_2
*I *143:Y O *D sky130_fd_sc_hd__nor2_1
*CAP
1 *168:A 0.000436293
2 *143:Y 0.000436293
3 *168:A *141:A 0.000108098
4 *168:A *169:A 0.000118513
5 *168:A *39:54 0.000418504
*RES
1 *143:Y *168:A 13.515 
*END

*D_NET *33 0.00373664
*CONN
*I *169:A I *D sky130_fd_sc_hd__buf_2
*I *144:Y O *D sky130_fd_sc_hd__xnor2_1
*CAP
1 *169:A 0.0011098
2 *144:Y 0.0011098
3 *169:A *142:A 4.5783e-05
4 *169:A *171:A 0.000584318
5 out[4] *169:A 8.66976e-06
6 *144:B *169:A 0.000759751
7 *168:A *169:A 0.000118513
*RES
1 *144:Y *169:A 27.24 
*END

*D_NET *34 0.00354207
*CONN
*I *170:A I *D sky130_fd_sc_hd__buf_2
*I *148:X O *D sky130_fd_sc_hd__clkbuf_1
*CAP
1 *170:A 0.000764582
2 *148:X 0.000764582
3 *170:A *171:A 0
4 *145:A3 *170:A 0
5 *147:A_N *170:A 0.00011964
6 *153:B *170:A 0.000353539
7 *155:B1_N *170:A 0.000141606
8 *165:A *170:A 0.00021133
9 *166:A *170:A 0.000162325
10 *19:36 *170:A 0.000670254
11 *19:47 *170:A 0.000354215
*RES
1 *148:X *170:A 26.985 
*END

*D_NET *35 0.00497502
*CONN
*I *171:A I *D sky130_fd_sc_hd__clkbuf_4
*I *149:X O *D sky130_fd_sc_hd__xor2_1
*CAP
1 *171:A 0.00137665
2 *149:X 0.00137665
3 *171:A *142:A 9.37731e-05
4 *171:A *172:A 0.00034967
5 out[5] *171:A 0
6 *147:A_N *171:A 0.000153063
7 *149:B *171:A 0.000795486
8 *169:A *171:A 0.000584318
9 *170:A *171:A 0
10 *20:8 *171:A 0.000245411
*RES
1 *149:X *171:A 32.25 
*END

*D_NET *36 0.0078266
*CONN
*I *152:A1 I *D sky130_fd_sc_hd__o21ai_1
*I *151:B I *D sky130_fd_sc_hd__or3_1
*I *140:C I *D sky130_fd_sc_hd__or4_2
*I *150:A I *D sky130_fd_sc_hd__xor2_1
*I *158:X O *D sky130_fd_sc_hd__buf_1
*CAP
1 *152:A1 0.000793254
2 *151:B 3.9315e-05
3 *140:C 0.000243633
4 *150:A 6.93639e-05
5 *158:X 9.50936e-05
6 *36:12 0.00054698
7 *36:10 0.000893473
8 *36:6 0.00150852
9 *140:C *140:A 0.000351372
10 *140:C *140:B 0.000245033
11 *140:C *145:A1 2.49909e-05
12 *150:A *145:A1 0.000175109
13 *150:A *146:C 2.49909e-05
14 *36:6 *37:12 1.19928e-05
15 *36:12 *145:A1 5.04569e-05
16 *150:B *150:A 0.00018701
17 *151:C *151:B 1.71824e-05
18 *152:A2 *152:A1 0.000657264
19 *152:A2 *36:6 4.80285e-05
20 *19:6 *140:C 0.000112075
21 *19:10 *140:C 0.000275031
22 *28:8 *36:10 2.86623e-05
23 *28:10 *36:10 0.000601641
24 *28:16 *150:A 5.4003e-05
25 *28:16 *36:10 3.84331e-05
26 *28:16 *36:12 0.000341493
27 *28:31 *140:C 0.000392201
*RES
1 *158:X *36:6 2.74 
2 *36:6 *36:10 15.62 
3 *36:10 *36:12 5.46 
4 *36:12 *150:A 6.195 
5 *36:12 *140:C 13.02 
6 *36:10 *151:B 4.05 
7 *36:6 *152:A1 12.67 
*END

*D_NET *37 0.0069177
*CONN
*I *152:B1 I *D sky130_fd_sc_hd__o21ai_1
*I *151:A I *D sky130_fd_sc_hd__or3_1
*I *140:B I *D sky130_fd_sc_hd__or4_2
*I *159:X O *D sky130_fd_sc_hd__buf_1
*CAP
1 *152:B1 0.000304415
2 *151:A 9.1031e-05
3 *140:B 0.00080966
4 *159:X 0.000218466
5 *37:16 0.00150258
6 *37:12 0.00112477
7 *140:B *146:C 6.02202e-05
8 *140:C *140:B 0.000245033
9 *152:A2 *152:B1 0.000809629
10 *152:A2 *37:12 0.000308226
11 *153:A *140:B 0.000268878
12 *153:A *37:16 4.35665e-05
13 *154:A *140:B 0
14 *154:A *37:16 0
15 *155:A2 *37:16 0.000642817
16 *19:6 *140:B 8.40269e-05
17 *19:10 *140:B 0.000273872
18 *28:10 *37:12 0.00011852
19 *36:6 *37:12 1.19928e-05
*RES
1 *159:X *37:12 10.19 
2 *37:12 *37:16 14.09 
3 *37:16 *140:B 16.32 
4 *37:16 *151:A 4.74 
5 *37:12 *152:B1 8.95 
*END

*D_NET *38 0.00417622
*CONN
*I *155:A1 I *D sky130_fd_sc_hd__a21boi_1
*I *140:A I *D sky130_fd_sc_hd__or4_2
*I *160:X O *D sky130_fd_sc_hd__clkbuf_1
*CAP
1 *155:A1 0.000130496
2 *140:A 0.000810973
3 *160:X 0.000505799
4 *38:12 0.00144727
5 *140:C *140:A 0.000351372
6 *144:B *140:A 6.86732e-05
7 *145:A3 *140:A 5.16348e-05
8 *146:D *140:A 0.000155234
9 *147:B *140:A 0
10 *147:B *155:A1 0
11 *154:A *140:A 0
12 *154:A *38:12 4.77719e-05
13 *156:A *140:A 0.00012657
14 *166:A *38:12 0.000119631
15 *19:6 *140:A 4.60584e-05
16 *19:36 *140:A 0
17 *23:8 *140:A 0
18 *28:31 *140:A 0.000314737
*RES
1 *160:X *38:12 11.415 
2 *38:12 *140:A 20.1 
3 *38:12 *155:A1 5.745 
*END

*D_NET *39 0.00850069
*CONN
*I *141:A I *D sky130_fd_sc_hd__nor2_1
*I *142:A I *D sky130_fd_sc_hd__and2_1
*I *146:A I *D sky130_fd_sc_hd__or4_1
*I *145:A1 I *D sky130_fd_sc_hd__o31a_1
*I *161:X O *D sky130_fd_sc_hd__buf_1
*CAP
1 *141:A 0.000111135
2 *142:A 0.000203175
3 *146:A 0.000568869
4 *145:A1 0.00061721
5 *161:X 8.30117e-05
6 *39:54 0.00110098
7 *39:10 0.00130679
8 *39:8 0.000990391
9 *142:A *172:A 0.00033517
10 *145:A1 *144:A 8.76033e-05
11 *145:A1 *145:A2 0.000100972
12 *145:A1 *145:B1 7.23666e-05
13 *145:A1 *146:C 0
14 *145:A1 *149:A 1.83756e-05
15 *146:A *146:B 8.10469e-05
16 *146:A *146:C 0.000136827
17 *146:A *40:8 1.56428e-05
18 *39:10 *144:A 0.000252275
19 *39:54 *144:A 0.000206824
20 out[3] *142:A 0
21 *140:C *145:A1 2.49909e-05
22 *141:B *141:A 0.000158066
23 *141:B *39:54 0.000342778
24 *142:B *142:A 1.16578e-05
25 *145:A3 *145:A1 4.94457e-05
26 *149:B *39:54 0.000340994
27 *150:A *145:A1 0.000175109
28 *150:B *145:A1 1.15688e-05
29 *153:B *146:A 7.22898e-05
30 *154:A *146:A 0.000198339
31 *161:A *39:8 3.64998e-06
32 *161:A *39:54 0
33 *162:A *145:A1 0
34 *162:A *146:A 1.08758e-05
35 *168:A *141:A 0.000108098
36 *168:A *39:54 0.000418504
37 *169:A *142:A 4.5783e-05
38 *171:A *142:A 9.37731e-05
39 *20:8 *141:A 2.30292e-05
40 *20:8 *39:54 6.38806e-05
41 *28:31 *145:A1 8.73389e-06
42 *36:12 *145:A1 5.04569e-05
*RES
1 *161:X *39:8 4.395 
2 *39:8 *39:10 2.91 
3 *39:10 *145:A1 17.875 
4 *39:10 *146:A 13.155 
5 *39:8 *39:54 17.615 
6 *39:54 *142:A 10.7 
7 *39:54 *141:A 4.135 
*END

*D_NET *40 0.00481847
*CONN
*I *146:B I *D sky130_fd_sc_hd__or4_1
*I *144:A I *D sky130_fd_sc_hd__xnor2_1
*I *145:A2 I *D sky130_fd_sc_hd__o31a_1
*I *162:X O *D sky130_fd_sc_hd__buf_1
*CAP
1 *146:B 0.000561764
2 *144:A 0.000270964
3 *145:A2 0.000260358
4 *162:X 0
5 *40:8 0.000560593
6 *40:4 0.000591035
7 *144:A *149:A 0.00056362
8 *145:A2 *145:B1 1.34361e-05
9 *145:A2 *149:A 0.000452923
10 *145:A1 *144:A 8.76033e-05
11 *145:A1 *145:A2 0.000100972
12 *146:A *146:B 8.10469e-05
13 *146:A *40:8 1.56428e-05
14 *153:B *146:B 0.000461617
15 *163:A *145:A2 0.000224045
16 *28:10 *144:A 0.000113745
17 *39:10 *144:A 0.000252275
18 *39:54 *144:A 0.000206824
*RES
1 *162:X *40:4 1.6 
2 *40:4 *40:8 2.45 
3 *40:8 *145:A2 10.725 
4 *40:8 *144:A 12.825 
5 *40:4 *146:B 8.965 
*END

*D_NET *41 0.0027879
*CONN
*I *146:C I *D sky130_fd_sc_hd__or4_1
*I *145:B1 I *D sky130_fd_sc_hd__o31a_1
*I *163:X O *D sky130_fd_sc_hd__clkbuf_1
*CAP
1 *146:C 0.000612085
2 *145:B1 0.000126648
3 *163:X 4.78063e-05
4 *41:6 0.000786539
5 *145:B1 *149:A 0.00021613
6 *140:B *146:C 6.02202e-05
7 *145:A1 *145:B1 7.23666e-05
8 *145:A1 *146:C 0
9 *145:A2 *145:B1 1.34361e-05
10 *145:A3 *145:B1 3.92902e-05
11 *145:A3 *146:C 0
12 *146:A *146:C 0.000136827
13 *150:A *146:C 2.49909e-05
14 *150:B *145:B1 7.70758e-05
15 *150:B *146:C 2.72462e-05
16 *153:B *146:C 0.000386412
17 *154:A *146:C 0.000160831
*RES
1 *163:X *41:6 2.05 
2 *41:6 *145:B1 9.515 
3 *41:6 *146:C 16.34 
*END

*D_NET *42 0.00280897
*CONN
*I *149:A I *D sky130_fd_sc_hd__xor2_1
*I *164:X O *D sky130_fd_sc_hd__clkbuf_1
*CAP
1 *149:A 0.000407038
2 *164:X 0.000407038
3 *144:A *149:A 0.00056362
4 *145:A1 *149:A 1.83756e-05
5 *145:A2 *149:A 0.000452923
6 *145:A3 *149:A 1.74015e-05
7 *145:B1 *149:A 0.00021613
8 *147:A_N *149:A 4.89295e-05
9 *150:B *149:A 4.76581e-05
10 *28:10 *149:A 0.000154488
11 *28:16 *149:A 0.000475365
*RES
1 *164:X *149:A 20.61 
*END

*D_NET *43 0.00354581
*CONN
*I *172:A I *D sky130_fd_sc_hd__buf_2
*I *156:X O *D sky130_fd_sc_hd__clkbuf_1
*CAP
1 *172:A 0.000779817
2 *156:X 0.000779817
3 out[2] *172:A 0
4 *142:A *172:A 0.00033517
5 *147:A_N *172:A 0.00118084
6 *153:B *172:A 0
7 *156:A *172:A 1.7386e-05
8 *165:A *172:A 0.000103105
9 *167:A *172:A 0
10 *171:A *172:A 0.00034967
*RES
1 *156:X *172:A 27.39 
*END
