*SPEF "ieee 1481-1999"
*DESIGN "twos_complement"
*DATE "13:34:40 Sunday April 27, 2025"
*VENDOR "The OpenROAD Project"
*PROGRAM "OpenROAD"
*VERSION "b16bda7e82721d10566ff7e2b68f1ff0be9f9e38"
*DESIGN_FLOW "NAME_SCOPE LOCAL" "PIN_CAP NONE"
*DIVIDER /
*DELIMITER :
*BUS_DELIMITER []
*T_UNIT 1 NS
*C_UNIT 1 PF
*R_UNIT 1 OHM
*L_UNIT 1 HENRY

*NAME_MAP
*3 in[0]
*4 in[1]
*5 in[2]
*6 in[3]
*7 in[4]
*8 in[5]
*9 in[6]
*10 in[7]
*11 out[0]
*12 out[1]
*13 out[2]
*14 out[3]
*15 out[4]
*16 out[5]
*17 out[6]
*18 out[7]
*19 _00_
*20 _01_
*21 _02_
*22 _03_
*23 _04_
*24 _05_
*25 _06_
*26 _07_
*27 _08_
*28 net1
*29 net10
*30 net11
*31 net12
*32 net13
*33 net14
*34 net15
*35 net16
*36 net2
*37 net3
*38 net4
*39 net5
*40 net6
*41 net7
*42 net8
*43 net9
*44 FILLER_0_0_13
*45 FILLER_0_0_25
*46 FILLER_0_0_29
*47 FILLER_0_0_37
*48 FILLER_0_10_18
*49 FILLER_0_10_26
*50 FILLER_0_10_29
*51 FILLER_0_10_41
*52 FILLER_0_10_6
*53 FILLER_0_11_18
*54 FILLER_0_11_30
*55 FILLER_0_11_34
*56 FILLER_0_11_39
*57 FILLER_0_11_47
*58 FILLER_0_11_6
*59 FILLER_0_12_13
*60 FILLER_0_12_25
*61 FILLER_0_12_29
*62 FILLER_0_12_37
*63 FILLER_0_1_14
*64 FILLER_0_1_26
*65 FILLER_0_1_38
*66 FILLER_0_1_46
*67 FILLER_0_1_6
*68 FILLER_0_2_15
*69 FILLER_0_2_27
*70 FILLER_0_2_29
*71 FILLER_0_2_3
*72 FILLER_0_2_33
*73 FILLER_0_2_44
*74 FILLER_0_3_10
*75 FILLER_0_3_16
*76 FILLER_0_3_24
*77 FILLER_0_3_31
*78 FILLER_0_3_43
*79 FILLER_0_3_6
*80 FILLER_0_4_15
*81 FILLER_0_4_27
*82 FILLER_0_4_29
*83 FILLER_0_4_3
*84 FILLER_0_4_41
*85 FILLER_0_4_47
*86 FILLER_0_5_14
*87 FILLER_0_5_26
*88 FILLER_0_5_38
*89 FILLER_0_5_6
*90 FILLER_0_6_10
*91 FILLER_0_6_22
*92 FILLER_0_6_32
*93 FILLER_0_6_44
*94 FILLER_0_7_10
*95 FILLER_0_7_22
*96 FILLER_0_7_34
*97 FILLER_0_7_46
*98 FILLER_0_8_18
*99 FILLER_0_8_22
*100 FILLER_0_8_29
*101 FILLER_0_8_37
*102 FILLER_0_8_6
*103 FILLER_0_9_15
*104 FILLER_0_9_23
*105 FILLER_0_9_3
*106 FILLER_0_9_40
*107 PHY_EDGE_ROW_0_Left_13
*108 PHY_EDGE_ROW_0_Right_0
*109 PHY_EDGE_ROW_10_Left_23
*110 PHY_EDGE_ROW_10_Right_10
*111 PHY_EDGE_ROW_11_Left_24
*112 PHY_EDGE_ROW_11_Right_11
*113 PHY_EDGE_ROW_12_Left_25
*114 PHY_EDGE_ROW_12_Right_12
*115 PHY_EDGE_ROW_1_Left_14
*116 PHY_EDGE_ROW_1_Right_1
*117 PHY_EDGE_ROW_2_Left_15
*118 PHY_EDGE_ROW_2_Right_2
*119 PHY_EDGE_ROW_3_Left_16
*120 PHY_EDGE_ROW_3_Right_3
*121 PHY_EDGE_ROW_4_Left_17
*122 PHY_EDGE_ROW_4_Right_4
*123 PHY_EDGE_ROW_5_Left_18
*124 PHY_EDGE_ROW_5_Right_5
*125 PHY_EDGE_ROW_6_Left_19
*126 PHY_EDGE_ROW_6_Right_6
*127 PHY_EDGE_ROW_7_Left_20
*128 PHY_EDGE_ROW_7_Right_7
*129 PHY_EDGE_ROW_8_Left_21
*130 PHY_EDGE_ROW_8_Right_8
*131 PHY_EDGE_ROW_9_Left_22
*132 PHY_EDGE_ROW_9_Right_9
*133 TAP_TAPCELL_ROW_0_26
*134 TAP_TAPCELL_ROW_10_31
*135 TAP_TAPCELL_ROW_12_32
*136 TAP_TAPCELL_ROW_2_27
*137 TAP_TAPCELL_ROW_4_28
*138 TAP_TAPCELL_ROW_6_29
*139 TAP_TAPCELL_ROW_8_30
*140 _09_
*141 _10_
*142 _11_
*143 _12_
*144 _13_
*145 _14_
*146 _15_
*147 _16_
*148 _17_
*149 _18_
*150 _19_
*151 _20_
*152 _21_
*153 _22_
*154 _23_
*155 _24_
*156 _25_
*157 input1
*158 input2
*159 input3
*160 input4
*161 input5
*162 input6
*163 input7
*164 input8
*165 output10
*166 output11
*167 output12
*168 output13
*169 output14
*170 output15
*171 output16
*172 output9

*PORTS
in[0] I
in[1] I
in[2] I
in[3] I
in[4] I
in[5] I
in[6] I
in[7] I
out[0] O
out[1] O
out[2] O
out[3] O
out[4] O
out[5] O
out[6] O
out[7] O

*D_NET *3 0.00105377
*CONN
*P in[0] I
*I *157:A I *D sky130_fd_sc_hd__dlymetal6s2s_1
*CAP
1 in[0] 0.000526885
2 *157:A 0.000526885
3 *157:A *158:A 0
*RES
1 in[0] *157:A 24.1943 
*END

*D_NET *4 0.000762532
*CONN
*P in[1] I
*I *158:A I *D sky130_fd_sc_hd__buf_1
*CAP
1 in[1] 0.000381266
2 *158:A 0.000381266
3 *158:A *159:A 0
4 *158:A *28:8 0
5 *157:A *158:A 0
*RES
1 in[1] *158:A 22.3017 
*END

*D_NET *5 0.000572832
*CONN
*P in[2] I
*I *159:A I *D sky130_fd_sc_hd__buf_1
*CAP
1 in[2] 0.000286416
2 *159:A 0.000286416
3 *159:A *160:A 0
4 *158:A *159:A 0
*RES
1 in[2] *159:A 20.4803 
*END

*D_NET *6 0.000694675
*CONN
*P in[3] I
*I *160:A I *D sky130_fd_sc_hd__clkbuf_1
*CAP
1 in[3] 0.000347337
2 *160:A 0.000347337
3 *160:A *161:A 0
4 *160:A *28:10 0
5 *159:A *160:A 0
*RES
1 in[3] *160:A 21.6946 
*END

*D_NET *7 0.000616923
*CONN
*P in[4] I
*I *161:A I *D sky130_fd_sc_hd__buf_1
*CAP
1 in[4] 0.000306616
2 *161:A 0.000306616
3 *161:A *162:A 0
4 *161:A *39:8 3.69047e-06
5 *161:A *39:54 0
6 *160:A *161:A 0
*RES
1 in[4] *161:A 20.7838 
*END

*D_NET *8 0.000732292
*CONN
*P in[5] I
*I *162:A I *D sky130_fd_sc_hd__buf_1
*CAP
1 in[5] 0.000359928
2 *162:A 0.000359928
3 *162:A *145:A1 0
4 *162:A *146:A 1.24368e-05
5 *162:A *163:A 0
6 *161:A *162:A 0
*RES
1 in[5] *162:A 21.9981 
*END

*D_NET *9 0.000925943
*CONN
*P in[6] I
*I *163:A I *D sky130_fd_sc_hd__clkbuf_1
*CAP
1 in[6] 0.000342027
2 *163:A 0.000342027
3 *163:A *145:A2 0.00024189
4 *163:A *164:A 0
5 *162:A *163:A 0
*RES
1 in[6] *163:A 21.4621 
*END

*D_NET *10 0.00252405
*CONN
*P in[7] I
*I *164:A I *D sky130_fd_sc_hd__clkbuf_1
*CAP
1 in[7] 0.000984469
2 *164:A 0.000984469
3 *164:A *145:A3 0.000359525
4 *164:A *22:10 0.000195589
5 *163:A *164:A 0
*RES
1 in[7] *164:A 29.4373 
*END

*D_NET *11 0.00116601
*CONN
*P out[0] O
*I *172:X O *D sky130_fd_sc_hd__buf_2
*CAP
1 out[0] 0.000583005
2 *172:X 0.000583005
3 out[0] out[1] 0
*RES
1 *172:X out[0] 23.8754 
*END

*D_NET *12 0.000438356
*CONN
*P out[1] O
*I *165:X O *D sky130_fd_sc_hd__buf_2
*CAP
1 out[1] 0.000219178
2 *165:X 0.000219178
3 out[1] out[2] 0
4 out[0] out[1] 0
*RES
1 *165:X out[1] 18.1229 
*END

*D_NET *13 0.000437128
*CONN
*P out[2] O
*I *166:X O *D sky130_fd_sc_hd__buf_2
*CAP
1 out[2] 0.000218564
2 *166:X 0.000218564
3 out[2] out[3] 0
4 out[2] *43:12 0
5 out[1] out[2] 0
*RES
1 *166:X out[2] 18.1229 
*END

*D_NET *14 0.000580396
*CONN
*P out[3] O
*I *167:X O *D sky130_fd_sc_hd__buf_2
*CAP
1 out[3] 0.000290198
2 *167:X 0.000290198
3 out[3] out[4] 0
4 out[3] *142:A 0
5 out[2] out[3] 0
*RES
1 *167:X out[3] 19.3371 
*END

*D_NET *15 0.000444976
*CONN
*P out[4] O
*I *168:X O *D sky130_fd_sc_hd__buf_2
*CAP
1 out[4] 0.000218234
2 *168:X 0.000218234
3 out[4] out[5] 0
4 out[4] *33:14 8.50795e-06
5 out[3] out[4] 0
*RES
1 *168:X out[4] 18.1229 
*END

*D_NET *16 0.000581652
*CONN
*P out[5] O
*I *169:X O *D sky130_fd_sc_hd__buf_2
*CAP
1 out[5] 0.000290826
2 *169:X 0.000290826
3 out[5] out[6] 0
4 out[5] *35:14 0
5 out[4] out[5] 0
*RES
1 *169:X out[5] 19.3371 
*END

*D_NET *17 0.000779239
*CONN
*P out[6] O
*I *170:X O *D sky130_fd_sc_hd__buf_2
*CAP
1 out[6] 0.000389619
2 *170:X 0.000389619
3 out[6] out[7] 0
4 out[5] out[6] 0
*RES
1 *170:X out[6] 18.5553 
*END

*D_NET *18 0.00103775
*CONN
*P out[7] O
*I *171:X O *D sky130_fd_sc_hd__clkbuf_4
*CAP
1 out[7] 0.000518877
2 *171:X 0.000518877
3 out[6] out[7] 0
*RES
1 *171:X out[7] 24.4258 
*END

*D_NET *19 0.00920958
*CONN
*I *155:B1_N I *D sky130_fd_sc_hd__a21boi_1
*I *142:B I *D sky130_fd_sc_hd__and2_1
*I *141:B I *D sky130_fd_sc_hd__nor2_1
*I *146:D I *D sky130_fd_sc_hd__or4_1
*I *145:A3 I *D sky130_fd_sc_hd__o31a_1
*I *140:X O *D sky130_fd_sc_hd__or4_2
*CAP
1 *155:B1_N 0.000128633
2 *142:B 0.000202902
3 *141:B 0.00012866
4 *146:D 0.00010814
5 *145:A3 0.00078571
6 *140:X 0.000124072
7 *19:47 0.000451434
8 *19:36 0.000522282
9 *19:10 0.000945528
10 *19:6 0.000449472
11 *141:B *141:A 0.00018077
12 *141:B *20:8 0.000560353
13 *141:B *39:54 0.000392019
14 *142:B *142:A 1.33343e-05
15 *142:B *143:B 0.000114655
16 *142:B *166:A 9.41642e-05
17 *145:A3 *140:A 5.58941e-05
18 *145:A3 *145:A1 5.68713e-05
19 *145:A3 *145:B1 4.19925e-05
20 *145:A3 *146:C 0
21 *145:A3 *149:A 1.71433e-05
22 *145:A3 *22:10 0.00012969
23 *145:A3 *34:12 0
24 *146:D *140:A 0.000168224
25 *155:B1_N *147:B 0.000103874
26 *155:B1_N *148:A 6.5647e-05
27 *155:B1_N *166:A 1.17968e-05
28 *155:B1_N *34:12 0.000153054
29 *19:6 *140:A 4.88637e-05
30 *19:6 *140:B 9.60939e-05
31 *19:6 *140:C 0.00012835
32 *19:6 *156:A 3.14078e-05
33 *19:10 *140:B 0.000313235
34 *19:10 *140:C 0.000314882
35 *19:36 *140:A 0
36 *19:36 *143:B 1.02504e-05
37 *19:36 *23:8 0.000270054
38 *19:36 *29:26 0.000168046
39 *19:36 *34:12 0.000724514
40 *19:47 *143:B 0.000329816
41 *19:47 *147:B 2.49484e-05
42 *19:47 *34:12 0.000383281
43 *164:A *145:A3 0.000359525
*RES
1 *140:X *19:6 12.3 
2 *19:6 *19:10 7.5 
3 *19:10 *145:A3 28.4607 
4 *19:10 *146:D 16.05 
5 *19:6 *19:36 13.7321 
6 *19:36 *141:B 19.2643 
7 *19:36 *19:47 4.98214 
8 *19:47 *142:B 17.6214 
9 *19:47 *155:B1_N 17.425 
*END

*D_NET *20 0.00365213
*CONN
*I *143:A I *D sky130_fd_sc_hd__nor2_1
*I *144:B I *D sky130_fd_sc_hd__xnor2_1
*I *141:Y O *D sky130_fd_sc_hd__nor2_1
*CAP
1 *143:A 0
2 *144:B 0.000518986
3 *141:Y 0.000259985
4 *20:8 0.000778971
5 *144:B *140:A 6.63383e-05
6 *144:B *147:B 0.000137224
7 *144:B *23:8 5.58941e-05
8 *144:B *33:14 0.000872656
9 *20:8 *141:A 2.44318e-05
10 *20:8 *149:B 5.33005e-05
11 *20:8 *35:14 0.000256818
12 *20:8 *39:54 6.71755e-05
13 *141:B *20:8 0.000560353
*RES
1 *141:Y *20:8 16.8357 
2 *20:8 *144:B 30.425 
3 *20:8 *143:A 9.3 
*END

*D_NET *21 0.00166295
*CONN
*I *143:B I *D sky130_fd_sc_hd__nor2_1
*I *142:X O *D sky130_fd_sc_hd__and2_1
*CAP
1 *143:B 0.000361337
2 *142:X 0.000361337
3 *143:B *147:B 0.000292708
4 *143:B *166:A 0.000136958
5 *143:B *23:8 5.58941e-05
6 *142:B *143:B 0.000114655
7 *19:36 *143:B 1.02504e-05
8 *19:47 *143:B 0.000329816
*RES
1 *142:X *143:B 35.3857 
*END

*D_NET *22 0.00526902
*CONN
*I *147:A_N I *D sky130_fd_sc_hd__and2b_1
*I *145:X O *D sky130_fd_sc_hd__o31a_1
*CAP
1 *147:A_N 0
2 *145:X 0.00135085
3 *22:10 0.00135085
4 *22:10 *149:A 5.65955e-05
5 *22:10 *26:14 0.000430358
6 *22:10 *29:26 0.000202804
7 *22:10 *34:12 0.000126639
8 *22:10 *35:14 0.000149407
9 *22:10 *43:12 0.00127624
10 *145:A3 *22:10 0.00012969
11 *164:A *22:10 0.000195589
*RES
1 *145:X *22:10 47.6214 
2 *22:10 *147:A_N 13.8 
*END

*D_NET *23 0.00470512
*CONN
*I *147:B I *D sky130_fd_sc_hd__and2b_1
*I *149:B I *D sky130_fd_sc_hd__xor2_1
*I *146:X O *D sky130_fd_sc_hd__or4_1
*CAP
1 *147:B 0.00042345
2 *149:B 0.00030184
3 *146:X 0.000282562
4 *23:8 0.00100785
5 *147:B *140:A 0
6 *147:B *148:A 7.62318e-05
7 *147:B *155:A1 0
8 *147:B *166:A 0
9 *147:B *167:A 0.000226694
10 *149:B *35:14 0.000913519
11 *149:B *39:54 0.000359082
12 *23:8 *140:A 0
13 *23:8 *29:26 0.000119988
14 *143:B *147:B 0.000292708
15 *143:B *23:8 5.58941e-05
16 *144:B *147:B 0.000137224
17 *144:B *23:8 5.58941e-05
18 *155:B1_N *147:B 0.000103874
19 *19:36 *23:8 0.000270054
20 *19:47 *147:B 2.49484e-05
21 *20:8 *149:B 5.33005e-05
*RES
1 *146:X *23:8 20.9071 
2 *23:8 *149:B 24.2107 
3 *23:8 *147:B 24.425 
*END

*D_NET *24 0.000293552
*CONN
*I *148:A I *D sky130_fd_sc_hd__clkbuf_1
*I *147:X O *D sky130_fd_sc_hd__and2b_1
*CAP
1 *148:A 7.58365e-05
2 *147:X 7.58365e-05
3 *147:B *148:A 7.62318e-05
4 *155:B1_N *148:A 6.5647e-05
*RES
1 *147:X *148:A 20.3857 
*END

*D_NET *25 0.00297339
*CONN
*I *155:A2 I *D sky130_fd_sc_hd__a21boi_1
*I *153:A I *D sky130_fd_sc_hd__and2_1
*I *151:X O *D sky130_fd_sc_hd__or3_1
*CAP
1 *155:A2 0.000696317
2 *153:A 0.000268703
3 *151:X 0
4 *25:6 0.00096502
5 *153:A *140:B 0.000288299
6 *153:A *37:16 4.80085e-05
7 *155:A2 *37:16 0.00070704
*RES
1 *151:X *25:6 13.8 
2 *25:6 *153:A 20.05 
3 *25:6 *155:A2 28.0857 
*END

*D_NET *26 0.00466225
*CONN
*I *153:B I *D sky130_fd_sc_hd__and2_1
*I *152:Y O *D sky130_fd_sc_hd__o21ai_1
*CAP
1 *153:B 0
2 *152:Y 0.0011699
3 *26:14 0.0011699
4 *26:14 *146:A 7.58906e-05
5 *26:14 *146:B 0.000529737
6 *26:14 *146:C 0.000443405
7 *26:14 *154:A 2.28499e-05
8 *26:14 *166:A 0.000214847
9 *26:14 *29:26 0.000260917
10 *26:14 *34:12 0.000344444
11 *26:14 *43:12 0
12 *22:10 *26:14 0.000430358
*RES
1 *152:Y *26:14 48.1571 
2 *26:14 *153:B 9.3 
*END

*D_NET *27 0.00205321
*CONN
*I *154:A I *D sky130_fd_sc_hd__clkbuf_1
*I *153:X O *D sky130_fd_sc_hd__and2_1
*CAP
1 *154:A 0.000780615
2 *153:X 0.000780615
3 *154:A *140:A 0
4 *154:A *140:B 0
5 *154:A *146:A 0.000228784
6 *154:A *146:C 0.000185401
7 *154:A *37:16 0
8 *154:A *38:12 5.49489e-05
9 *26:14 *154:A 2.28499e-05
*RES
1 *153:X *154:A 42.2786 
*END

*D_NET *28 0.00969931
*CONN
*I *152:A2 I *D sky130_fd_sc_hd__o21ai_1
*I *151:C I *D sky130_fd_sc_hd__or3_1
*I *156:A I *D sky130_fd_sc_hd__clkbuf_1
*I *140:D I *D sky130_fd_sc_hd__or4_2
*I *150:B I *D sky130_fd_sc_hd__xor2_1
*I *157:X O *D sky130_fd_sc_hd__dlymetal6s2s_1
*CAP
1 *152:A2 0.000239075
2 *151:C 8.74967e-05
3 *156:A 0.00023326
4 *140:D 0
5 *150:B 0.000130918
6 *157:X 0.000111626
7 *28:31 0.000808676
8 *28:16 0.000924666
9 *28:10 0.000838382
10 *28:8 0.000883254
11 *150:B *145:A1 1.18064e-05
12 *150:B *145:B1 8.32171e-05
13 *150:B *146:C 2.80862e-05
14 *150:B *149:A 4.89264e-05
15 *150:B *150:A 0.000205567
16 *151:C *151:B 1.757e-05
17 *152:A2 *152:A1 0.000700047
18 *152:A2 *152:B1 0.000928951
19 *152:A2 *36:6 5.03772e-05
20 *152:A2 *37:12 0.00035494
21 *156:A *140:A 0.000144773
22 *156:A *43:12 1.72894e-05
23 *28:8 *36:10 2.94103e-05
24 *28:10 *144:A 0.000118095
25 *28:10 *149:A 0.000166983
26 *28:10 *36:10 0.0006227
27 *28:10 *37:12 0.000128154
28 *28:16 *149:A 0.000507499
29 *28:16 *150:A 5.83304e-05
30 *28:16 *36:10 4.00025e-05
31 *28:16 *36:12 0.00036204
32 *28:31 *140:A 0.000360472
33 *28:31 *140:C 0.000417056
34 *28:31 *145:A1 8.25843e-06
35 *158:A *28:8 0
36 *160:A *28:10 0
37 *19:6 *156:A 3.14078e-05
*RES
1 *157:X *28:8 16.05 
2 *28:8 *28:10 14.6964 
3 *28:10 *28:16 8.67857 
4 *28:16 *150:B 17.4071 
5 *28:16 *28:31 15.7143 
6 *28:31 *140:D 9.3 
7 *28:31 *156:A 13.55 
8 *28:10 *151:C 15.1571 
9 *28:8 *152:A2 26.6571 
*END

*D_NET *29 0.00701251
*CONN
*I *165:A I *D sky130_fd_sc_hd__buf_2
*I *150:X O *D sky130_fd_sc_hd__xor2_1
*CAP
1 *165:A 0
2 *150:X 0.00291289
3 *29:26 0.00291289
4 *29:26 *166:A 0.000107625
5 *29:26 *34:12 0.000221028
6 *29:26 *43:12 0.000106316
7 *19:36 *29:26 0.000168046
8 *22:10 *29:26 0.000202804
9 *23:8 *29:26 0.000119988
10 *26:14 *29:26 0.000260917
*RES
1 *150:X *29:26 41.7556 
2 *29:26 *165:A 9.3 
*END

*D_NET *30 0.00243139
*CONN
*I *166:A I *D sky130_fd_sc_hd__buf_2
*I *154:X O *D sky130_fd_sc_hd__clkbuf_1
*CAP
1 *166:A 0.000781927
2 *154:X 0.000781927
3 *166:A *34:12 0.000175519
4 *166:A *38:12 0.000126629
5 *142:B *166:A 9.41642e-05
6 *143:B *166:A 0.000136958
7 *147:B *166:A 0
8 *155:B1_N *166:A 1.17968e-05
9 *26:14 *166:A 0.000214847
10 *29:26 *166:A 0.000107625
*RES
1 *154:X *166:A 43.0107 
*END

*D_NET *31 0.00180382
*CONN
*I *167:A I *D sky130_fd_sc_hd__buf_2
*I *155:Y O *D sky130_fd_sc_hd__a21boi_1
*CAP
1 *167:A 0.000788565
2 *155:Y 0.000788565
3 *167:A *43:12 0
4 *147:B *167:A 0.000226694
*RES
1 *155:Y *167:A 38.1714 
*END

*D_NET *32 0.00174041
*CONN
*I *168:A I *D sky130_fd_sc_hd__buf_2
*I *143:Y O *D sky130_fd_sc_hd__nor2_1
*CAP
1 *168:A 0.000505006
2 *143:Y 0.000505006
3 *168:A *141:A 0.000123617
4 *168:A *33:14 0.000128146
5 *168:A *39:54 0.000478632
*RES
1 *143:Y *168:A 35.1179 
*END

*D_NET *33 0.00416172
*CONN
*I *169:A I *D sky130_fd_sc_hd__buf_2
*I *144:Y O *D sky130_fd_sc_hd__xnor2_1
*CAP
1 *169:A 0
2 *144:Y 0.00123714
3 *33:14 0.00123714
4 *33:14 *142:A 4.66203e-05
5 *33:14 *35:14 0.000631504
6 out[4] *33:14 8.50795e-06
7 *144:B *33:14 0.000872656
8 *168:A *33:14 0.000128146
*RES
1 *144:Y *33:14 42.1571 
2 *33:14 *169:A 9.3 
*END

*D_NET *34 0.00387833
*CONN
*I *170:A I *D sky130_fd_sc_hd__buf_2
*I *148:X O *D sky130_fd_sc_hd__clkbuf_1
*CAP
1 *170:A 0
2 *148:X 0.000874927
3 *34:12 0.000874927
4 *34:12 *35:14 0
5 *145:A3 *34:12 0
6 *155:B1_N *34:12 0.000153054
7 *166:A *34:12 0.000175519
8 *19:36 *34:12 0.000724514
9 *19:47 *34:12 0.000383281
10 *22:10 *34:12 0.000126639
11 *26:14 *34:12 0.000344444
12 *29:26 *34:12 0.000221028
*RES
1 *148:X *34:12 41.8536 
2 *34:12 *170:A 9.3 
*END

*D_NET *35 0.00557978
*CONN
*I *171:A I *D sky130_fd_sc_hd__clkbuf_4
*I *149:X O *D sky130_fd_sc_hd__xor2_1
*CAP
1 *171:A 0
2 *149:X 0.00158237
3 *35:14 0.00158237
4 *35:14 *142:A 0.000101545
5 *35:14 *43:12 0.00036224
6 out[5] *35:14 0
7 *149:B *35:14 0.000913519
8 *20:8 *35:14 0.000256818
9 *22:10 *35:14 0.000149407
10 *33:14 *35:14 0.000631504
11 *34:12 *35:14 0
*RES
1 *149:X *35:14 48.1214 
2 *35:14 *171:A 9.3 
*END

*D_NET *36 0.00865662
*CONN
*I *152:A1 I *D sky130_fd_sc_hd__o21ai_1
*I *151:B I *D sky130_fd_sc_hd__or3_1
*I *140:C I *D sky130_fd_sc_hd__or4_2
*I *150:A I *D sky130_fd_sc_hd__xor2_1
*I *158:X O *D sky130_fd_sc_hd__buf_1
*CAP
1 *152:A1 0.000898582
2 *151:B 4.60309e-05
3 *140:C 0.000275785
4 *150:A 8.31781e-05
5 *158:X 0.000110845
6 *36:12 0.00062181
7 *36:10 0.000999459
8 *36:6 0.00170001
9 *140:C *140:A 0.000402368
10 *140:C *140:B 0.000260329
11 *140:C *145:A1 2.59355e-05
12 *150:A *145:A1 0.000192426
13 *150:A *146:C 2.59355e-05
14 *36:6 *37:12 1.21258e-05
15 *36:12 *145:A1 5.54655e-05
16 *150:B *150:A 0.000205567
17 *151:C *151:B 1.757e-05
18 *152:A2 *152:A1 0.000700047
19 *152:A2 *36:6 5.03772e-05
20 *19:6 *140:C 0.00012835
21 *19:10 *140:C 0.000314882
22 *28:8 *36:10 2.94103e-05
23 *28:10 *36:10 0.0006227
24 *28:16 *150:A 5.83304e-05
25 *28:16 *36:10 4.00025e-05
26 *28:16 *36:12 0.00036204
27 *28:31 *140:C 0.000417056
*RES
1 *158:X *36:6 10.6571 
2 *36:6 *36:10 20.7143 
3 *36:10 *36:12 6.5 
4 *36:12 *150:A 16.8893 
5 *36:12 *140:C 25.0143 
6 *36:10 *151:B 14.3357 
7 *36:6 *152:A1 22.4786 
*END

*D_NET *37 0.0077322
*CONN
*I *152:B1 I *D sky130_fd_sc_hd__o21ai_1
*I *151:A I *D sky130_fd_sc_hd__or3_1
*I *140:B I *D sky130_fd_sc_hd__or4_2
*I *159:X O *D sky130_fd_sc_hd__buf_1
*CAP
1 *152:B1 0.000330114
2 *151:A 0.000101852
3 *140:B 0.00092367
4 *159:X 0.000244323
5 *37:16 0.0016926
6 *37:12 0.00124151
7 *140:B *146:C 6.09572e-05
8 *140:C *140:B 0.000260329
9 *152:A2 *152:B1 0.000928951
10 *152:A2 *37:12 0.00035494
11 *153:A *140:B 0.000288299
12 *153:A *37:16 4.80085e-05
13 *154:A *140:B 0
14 *154:A *37:16 0
15 *155:A2 *37:16 0.00070704
16 *19:6 *140:B 9.60939e-05
17 *19:10 *140:B 0.000313235
18 *28:10 *37:12 0.000128154
19 *36:6 *37:12 1.21258e-05
*RES
1 *159:X *37:12 23.7643 
2 *37:12 *37:16 18.8929 
3 *37:16 *140:B 28.9429 
4 *37:16 *151:A 15.1571 
5 *37:12 *152:B1 18.05 
*END

*D_NET *38 0.00463649
*CONN
*I *155:A1 I *D sky130_fd_sc_hd__a21boi_1
*I *140:A I *D sky130_fd_sc_hd__or4_2
*I *160:X O *D sky130_fd_sc_hd__clkbuf_1
*CAP
1 *155:A1 0.000142343
2 *140:A 0.000907376
3 *160:X 0.00055427
4 *38:12 0.00160399
5 *140:C *140:A 0.000402368
6 *144:B *140:A 6.63383e-05
7 *145:A3 *140:A 5.58941e-05
8 *146:D *140:A 0.000168224
9 *147:B *140:A 0
10 *147:B *155:A1 0
11 *154:A *140:A 0
12 *154:A *38:12 5.49489e-05
13 *156:A *140:A 0.000144773
14 *166:A *38:12 0.000126629
15 *19:6 *140:A 4.88637e-05
16 *19:36 *140:A 0
17 *23:8 *140:A 0
18 *28:31 *140:A 0.000360472
*RES
1 *160:X *38:12 23.1036 
2 *38:12 *140:A 33.4429 
3 *38:12 *155:A1 16.3536 
*END

*D_NET *39 0.00947354
*CONN
*I *141:A I *D sky130_fd_sc_hd__nor2_1
*I *142:A I *D sky130_fd_sc_hd__and2_1
*I *146:A I *D sky130_fd_sc_hd__or4_1
*I *145:A1 I *D sky130_fd_sc_hd__o31a_1
*I *161:X O *D sky130_fd_sc_hd__buf_1
*CAP
1 *141:A 0.000124308
2 *142:A 0.000230857
3 *146:A 0.00063297
4 *145:A1 0.000703641
5 *161:X 9.65396e-05
6 *39:54 0.00124129
7 *39:10 0.00147172
8 *39:8 0.00111777
9 *142:A *43:12 0.000362538
10 *145:A1 *144:A 9.4724e-05
11 *145:A1 *145:A2 0.000109067
12 *145:A1 *145:B1 7.44673e-05
13 *145:A1 *146:C 0
14 *145:A1 *149:A 1.92789e-05
15 *146:A *146:B 7.8037e-05
16 *146:A *146:C 0.000145462
17 *146:A *40:8 1.58163e-05
18 *39:10 *144:A 0.000272658
19 *39:54 *144:A 0.000223599
20 out[3] *142:A 0
21 *140:C *145:A1 2.59355e-05
22 *141:B *141:A 0.00018077
23 *141:B *39:54 0.000392019
24 *142:B *142:A 1.33343e-05
25 *145:A3 *145:A1 5.68713e-05
26 *149:B *39:54 0.000359082
27 *150:A *145:A1 0.000192426
28 *150:B *145:A1 1.18064e-05
29 *154:A *146:A 0.000228784
30 *161:A *39:8 3.69047e-06
31 *161:A *39:54 0
32 *162:A *145:A1 0
33 *162:A *146:A 1.24368e-05
34 *168:A *141:A 0.000123617
35 *168:A *39:54 0.000478632
36 *20:8 *141:A 2.44318e-05
37 *20:8 *39:54 6.71755e-05
38 *26:14 *146:A 7.58906e-05
39 *28:31 *145:A1 8.25843e-06
40 *33:14 *142:A 4.66203e-05
41 *35:14 *142:A 0.000101545
42 *36:12 *145:A1 5.54655e-05
*RES
1 *161:X *39:8 14.7464 
2 *39:8 *39:10 3.46429 
3 *39:10 *145:A1 35.0321 
4 *39:10 *146:A 25.175 
5 *39:8 *39:54 23.0893 
6 *39:54 *142:A 24.3714 
7 *39:54 *141:A 12.3179 
*END

*D_NET *40 0.00536463
*CONN
*I *146:B I *D sky130_fd_sc_hd__or4_1
*I *144:A I *D sky130_fd_sc_hd__xnor2_1
*I *145:A2 I *D sky130_fd_sc_hd__o31a_1
*I *162:X O *D sky130_fd_sc_hd__buf_1
*CAP
1 *146:B 0.000646234
2 *144:A 0.000309877
3 *145:A2 0.000293963
4 *162:X 0
5 *40:8 0.000637974
6 *40:4 0.000680368
7 *144:A *149:A 0.000609061
8 *145:A2 *145:B1 1.41029e-05
9 *145:A2 *149:A 0.000489429
10 *145:A1 *144:A 9.4724e-05
11 *145:A1 *145:A2 0.000109067
12 *146:A *146:B 7.8037e-05
13 *146:A *40:8 1.58163e-05
14 *163:A *145:A2 0.00024189
15 *26:14 *146:B 0.000529737
16 *28:10 *144:A 0.000118095
17 *39:10 *144:A 0.000272658
18 *39:54 *144:A 0.000223599
*RES
1 *162:X *40:4 9.3 
2 *40:4 *40:8 5.03571 
3 *40:8 *145:A2 22.2821 
4 *40:8 *144:A 24.7821 
5 *40:4 *146:B 18.0679 
*END

*D_NET *41 0.00312751
*CONN
*I *146:C I *D sky130_fd_sc_hd__or4_1
*I *145:B1 I *D sky130_fd_sc_hd__o31a_1
*I *163:X O *D sky130_fd_sc_hd__clkbuf_1
*CAP
1 *146:C 0.00069712
2 *145:B1 0.000143148
3 *163:X 5.54804e-05
4 *41:6 0.000895748
5 *145:B1 *149:A 0.000232988
6 *140:B *146:C 6.09572e-05
7 *145:A1 *145:B1 7.44673e-05
8 *145:A1 *146:C 0
9 *145:A2 *145:B1 1.41029e-05
10 *145:A3 *145:B1 4.19925e-05
11 *145:A3 *146:C 0
12 *146:A *146:C 0.000145462
13 *150:A *146:C 2.59355e-05
14 *150:B *145:B1 8.32171e-05
15 *150:B *146:C 2.80862e-05
16 *154:A *146:C 0.000185401
17 *26:14 *146:C 0.000443405
*RES
1 *163:X *41:6 9.83571 
2 *41:6 *145:B1 22.9607 
3 *41:6 *146:C 31.0857 
*END

*D_NET *42 0.00310244
*CONN
*I *149:A I *D sky130_fd_sc_hd__xor2_1
*I *164:X O *D sky130_fd_sc_hd__clkbuf_1
*CAP
1 *149:A 0.000477266
2 *164:X 0.000477266
3 *144:A *149:A 0.000609061
4 *145:A1 *149:A 1.92789e-05
5 *145:A2 *149:A 0.000489429
6 *145:A3 *149:A 1.71433e-05
7 *145:B1 *149:A 0.000232988
8 *150:B *149:A 4.89264e-05
9 *22:10 *149:A 5.65955e-05
10 *28:10 *149:A 0.000166983
11 *28:16 *149:A 0.000507499
*RES
1 *164:X *149:A 43.5643 
*END

*D_NET *43 0.00388525
*CONN
*I *172:A I *D sky130_fd_sc_hd__buf_2
*I *156:X O *D sky130_fd_sc_hd__clkbuf_1
*CAP
1 *172:A 0
2 *156:X 0.00088031
3 *43:12 0.00088031
4 out[2] *43:12 0
5 *142:A *43:12 0.000362538
6 *156:A *43:12 1.72894e-05
7 *167:A *43:12 0
8 *22:10 *43:12 0.00127624
9 *26:14 *43:12 0
10 *29:26 *43:12 0.000106316
11 *35:14 *43:12 0.00036224
*RES
1 *156:X *43:12 42.3357 
2 *43:12 *172:A 9.3 
*END
