* NGSPICE file created from register_file.ext - technology: sky130A

* Black-box entry subcircuit for sky130_fd_sc_hd__tapvpwrvgnd_1 abstract view
.subckt sky130_fd_sc_hd__tapvpwrvgnd_1 VGND VPWR
.ends

* Black-box entry subcircuit for sky130_fd_sc_hd__fill_1 abstract view
.subckt sky130_fd_sc_hd__fill_1 VGND VNB VPB VPWR
.ends

* Black-box entry subcircuit for sky130_fd_sc_hd__dfxtp_1 abstract view
.subckt sky130_fd_sc_hd__dfxtp_1 CLK D VGND VNB VPB VPWR Q
.ends

* Black-box entry subcircuit for sky130_fd_sc_hd__clkbuf_1 abstract view
.subckt sky130_fd_sc_hd__clkbuf_1 A VGND VNB VPB VPWR X
.ends

* Black-box entry subcircuit for sky130_fd_sc_hd__o21ba_1 abstract view
.subckt sky130_fd_sc_hd__o21ba_1 A1 A2 B1_N VGND VNB VPB VPWR X
.ends

* Black-box entry subcircuit for sky130_fd_sc_hd__decap_6 abstract view
.subckt sky130_fd_sc_hd__decap_6 VGND VNB VPB VPWR
.ends

* Black-box entry subcircuit for sky130_fd_sc_hd__mux2_1 abstract view
.subckt sky130_fd_sc_hd__mux2_1 A0 A1 S VGND VNB VPB VPWR X
.ends

* Black-box entry subcircuit for sky130_fd_sc_hd__decap_3 abstract view
.subckt sky130_fd_sc_hd__decap_3 VGND VNB VPB VPWR
.ends

* Black-box entry subcircuit for sky130_fd_sc_hd__decap_4 abstract view
.subckt sky130_fd_sc_hd__decap_4 VGND VNB VPB VPWR
.ends

* Black-box entry subcircuit for sky130_fd_sc_hd__fill_2 abstract view
.subckt sky130_fd_sc_hd__fill_2 VGND VNB VPB VPWR
.ends

* Black-box entry subcircuit for sky130_ef_sc_hd__decap_12 abstract view
.subckt sky130_ef_sc_hd__decap_12 VPWR VGND VPB VNB
.ends

* Black-box entry subcircuit for sky130_fd_sc_hd__mux4_1 abstract view
.subckt sky130_fd_sc_hd__mux4_1 A0 A1 A2 A3 S0 S1 VGND VNB VPB VPWR X
.ends

* Black-box entry subcircuit for sky130_fd_sc_hd__dlygate4sd3_1 abstract view
.subckt sky130_fd_sc_hd__dlygate4sd3_1 A VGND VNB VPB VPWR X
.ends

* Black-box entry subcircuit for sky130_fd_sc_hd__buf_2 abstract view
.subckt sky130_fd_sc_hd__buf_2 A VGND VNB VPB VPWR X
.ends

* Black-box entry subcircuit for sky130_fd_sc_hd__clkbuf_16 abstract view
.subckt sky130_fd_sc_hd__clkbuf_16 A VGND VNB VPB VPWR X
.ends

* Black-box entry subcircuit for sky130_fd_sc_hd__or2b_1 abstract view
.subckt sky130_fd_sc_hd__or2b_1 A B_N VGND VNB VPB VPWR X
.ends

* Black-box entry subcircuit for sky130_fd_sc_hd__o21a_1 abstract view
.subckt sky130_fd_sc_hd__o21a_1 A1 A2 B1 VGND VNB VPB VPWR X
.ends

* Black-box entry subcircuit for sky130_fd_sc_hd__clkbuf_4 abstract view
.subckt sky130_fd_sc_hd__clkbuf_4 A VGND VNB VPB VPWR X
.ends

* Black-box entry subcircuit for sky130_fd_sc_hd__a221o_1 abstract view
.subckt sky130_fd_sc_hd__a221o_1 A1 A2 B1 B2 C1 VGND VNB VPB VPWR X
.ends

* Black-box entry subcircuit for sky130_fd_sc_hd__and4bb_4 abstract view
.subckt sky130_fd_sc_hd__and4bb_4 A_N B_N C D VGND VNB VPB VPWR X
.ends

* Black-box entry subcircuit for sky130_fd_sc_hd__decap_8 abstract view
.subckt sky130_fd_sc_hd__decap_8 VGND VNB VPB VPWR
.ends

* Black-box entry subcircuit for sky130_fd_sc_hd__and4b_1 abstract view
.subckt sky130_fd_sc_hd__and4b_1 A_N B C D VGND VNB VPB VPWR X
.ends

* Black-box entry subcircuit for sky130_fd_sc_hd__clkinvlp_2 abstract view
.subckt sky130_fd_sc_hd__clkinvlp_2 A VGND VNB VPB VPWR Y
.ends

* Black-box entry subcircuit for sky130_fd_sc_hd__bufinv_16 abstract view
.subckt sky130_fd_sc_hd__bufinv_16 A VGND VNB VPB VPWR Y
.ends

* Black-box entry subcircuit for sky130_fd_sc_hd__clkinv_1 abstract view
.subckt sky130_fd_sc_hd__clkinv_1 A VGND VNB VPB VPWR Y
.ends

* Black-box entry subcircuit for sky130_fd_sc_hd__buf_4 abstract view
.subckt sky130_fd_sc_hd__buf_4 A VGND VNB VPB VPWR X
.ends

* Black-box entry subcircuit for sky130_fd_sc_hd__inv_2 abstract view
.subckt sky130_fd_sc_hd__inv_2 A VGND VNB VPB VPWR Y
.ends

* Black-box entry subcircuit for sky130_fd_sc_hd__and4_1 abstract view
.subckt sky130_fd_sc_hd__and4_1 A B C D VGND VNB VPB VPWR X
.ends

* Black-box entry subcircuit for sky130_fd_sc_hd__or4b_1 abstract view
.subckt sky130_fd_sc_hd__or4b_1 A B C D_N VGND VNB VPB VPWR X
.ends

* Black-box entry subcircuit for sky130_fd_sc_hd__dlymetal6s2s_1 abstract view
.subckt sky130_fd_sc_hd__dlymetal6s2s_1 A VGND VNB VPB VPWR X
.ends

* Black-box entry subcircuit for sky130_fd_sc_hd__clkbuf_2 abstract view
.subckt sky130_fd_sc_hd__clkbuf_2 A VGND VNB VPB VPWR X
.ends

* Black-box entry subcircuit for sky130_fd_sc_hd__diode_2 abstract view
.subckt sky130_fd_sc_hd__diode_2 DIODE VGND VNB VPB VPWR
.ends

.subckt register_file VGND VPWR clk readData1[0] readData1[1] readData1[2] readData1[3]
+ readData1[4] readData1[5] readData1[6] readData1[7] readData2[0] readData2[1] readData2[2]
+ readData2[3] readData2[4] readData2[5] readData2[6] readData2[7] readReg1[0] readReg1[1]
+ readReg1[2] readReg2[0] readReg2[1] readReg2[2] regWrite writeData[0] writeData[1]
+ writeData[2] writeData[3] writeData[4] writeData[5] writeData[6] writeData[7] writeReg[0]
+ writeReg[1] writeReg[2]
XTAP_TAPCELL_ROW_24_139 VGND VPWR sky130_fd_sc_hd__tapvpwrvgnd_1
XFILLER_0_4_160 VGND VGND VPWR VPWR sky130_fd_sc_hd__fill_1
X_501_ clknet_3_3__leaf_clk _019_ VGND VGND VPWR VPWR registers\[4\]\[3\] sky130_fd_sc_hd__dfxtp_1
X_432_ _206_ VGND VGND VPWR VPWR _040_ sky130_fd_sc_hd__clkbuf_1
X_294_ registers\[0\]\[0\] _116_ _112_ VGND VGND VPWR VPWR _117_ sky130_fd_sc_hd__o21ba_1
XFILLER_0_3_39 VGND VGND VPWR VPWR sky130_fd_sc_hd__decap_6
X_363_ net35 net9 _167_ VGND VGND VPWR VPWR _169_ sky130_fd_sc_hd__mux2_1
XPHY_EDGE_ROW_19_Left_50 VGND VGND VPWR VPWR sky130_fd_sc_hd__decap_3
XFILLER_0_1_163 VGND VGND VPWR VPWR sky130_fd_sc_hd__decap_4
XFILLER_0_18_29 VGND VGND VPWR VPWR sky130_fd_sc_hd__fill_2
X_415_ net43 net9 _195_ VGND VGND VPWR VPWR _197_ sky130_fd_sc_hd__mux2_1
X_346_ _159_ VGND VGND VPWR VPWR _001_ sky130_fd_sc_hd__clkbuf_1
XFILLER_0_24_61 VGND VGND VPWR VPWR sky130_fd_sc_hd__decap_6
X_277_ _072_ registers\[0\]\[6\] net5 VGND VGND VPWR VPWR _102_ sky130_fd_sc_hd__o21ba_1
XPHY_EDGE_ROW_4_Left_35 VGND VGND VPWR VPWR sky130_fd_sc_hd__decap_3
XFILLER_0_29_39 VPWR VGND VPWR VGND sky130_ef_sc_hd__decap_12
XFILLER_0_28_103 VGND VGND VPWR VPWR sky130_fd_sc_hd__fill_1
XFILLER_0_0_29 VGND VGND VPWR VPWR sky130_fd_sc_hd__fill_2
X_329_ registers\[4\]\[6\] registers\[5\]\[6\] registers\[6\]\[6\] registers\[7\]\[6\]
+ _111_ _112_ VGND VGND VPWR VPWR _146_ sky130_fd_sc_hd__mux4_1
XFILLER_0_10_85 VPWR VGND VPWR VGND sky130_ef_sc_hd__decap_12
XFILLER_0_15_19 VGND VGND VPWR VPWR sky130_fd_sc_hd__decap_4
XFILLER_0_21_51 VGND VGND VPWR VPWR sky130_fd_sc_hd__decap_4
XFILLER_0_21_40 VGND VGND VPWR VPWR sky130_fd_sc_hd__decap_4
XFILLER_0_30_153 VPWR VGND VPWR VGND sky130_ef_sc_hd__decap_12
XFILLER_0_22_109 VGND VGND VPWR VPWR sky130_fd_sc_hd__decap_4
Xhold63 registers\[0\]\[3\] VGND VGND VPWR VPWR net97 sky130_fd_sc_hd__dlygate4sd3_1
Xhold30 registers\[4\]\[1\] VGND VGND VPWR VPWR net64 sky130_fd_sc_hd__dlygate4sd3_1
Xhold41 registers\[4\]\[7\] VGND VGND VPWR VPWR net75 sky130_fd_sc_hd__dlygate4sd3_1
Xhold52 registers\[3\]\[6\] VGND VGND VPWR VPWR net86 sky130_fd_sc_hd__dlygate4sd3_1
XTAP_TAPCELL_ROW_27_148 VGND VPWR sky130_fd_sc_hd__tapvpwrvgnd_1
Xoutput31 net31 VGND VGND VPWR VPWR readData2[4] sky130_fd_sc_hd__buf_2
Xoutput20 net20 VGND VGND VPWR VPWR readData1[1] sky130_fd_sc_hd__buf_2
XFILLER_0_27_50 VGND VGND VPWR VPWR sky130_fd_sc_hd__decap_3
X_362_ _168_ VGND VGND VPWR VPWR _008_ sky130_fd_sc_hd__clkbuf_1
Xclkbuf_3_6__f_clk clknet_0_clk VGND VGND VPWR VPWR clknet_3_6__leaf_clk sky130_fd_sc_hd__clkbuf_16
X_431_ net8 net92 _205_ VGND VGND VPWR VPWR _206_ sky130_fd_sc_hd__mux2_1
X_500_ clknet_3_1__leaf_clk _018_ VGND VGND VPWR VPWR registers\[4\]\[2\] sky130_fd_sc_hd__dfxtp_1
X_293_ net1 VGND VGND VPWR VPWR _116_ sky130_fd_sc_hd__buf_2
XFILLER_0_13_63 VGND VGND VPWR VPWR sky130_fd_sc_hd__fill_1
X_414_ _196_ VGND VGND VPWR VPWR _032_ sky130_fd_sc_hd__clkbuf_1
XPHY_EDGE_ROW_20_Left_51 VGND VGND VPWR VPWR sky130_fd_sc_hd__decap_3
X_345_ net73 net9 _157_ VGND VGND VPWR VPWR _159_ sky130_fd_sc_hd__mux2_1
X_276_ registers\[1\]\[6\] _070_ VGND VGND VPWR VPWR _101_ sky130_fd_sc_hd__or2b_1
XTAP_TAPCELL_ROW_8_89 VGND VPWR sky130_fd_sc_hd__tapvpwrvgnd_1
XPHY_EDGE_ROW_21_Right_21 VGND VGND VPWR VPWR sky130_fd_sc_hd__decap_3
XPHY_EDGE_ROW_12_Right_12 VGND VGND VPWR VPWR sky130_fd_sc_hd__decap_3
XFILLER_0_4_83 VGND VGND VPWR VPWR sky130_fd_sc_hd__fill_1
XPHY_EDGE_ROW_30_Right_30 VGND VGND VPWR VPWR sky130_fd_sc_hd__decap_3
X_328_ _110_ _141_ _145_ VGND VGND VPWR VPWR net24 sky130_fd_sc_hd__o21a_1
X_259_ _070_ registers\[0\]\[3\] net5 VGND VGND VPWR VPWR _087_ sky130_fd_sc_hd__o21ba_1
XFILLER_0_27_181 VGND VGND VPWR VPWR sky130_fd_sc_hd__fill_1
XFILLER_0_19_148 VGND VGND VPWR VPWR sky130_fd_sc_hd__decap_4
XFILLER_0_10_97 VGND VGND VPWR VPWR sky130_fd_sc_hd__decap_6
XFILLER_0_30_165 VGND VGND VPWR VPWR sky130_fd_sc_hd__decap_3
XFILLER_0_30_121 VGND VGND VPWR VPWR sky130_fd_sc_hd__fill_1
XFILLER_0_27_3 VPWR VGND VPWR VGND sky130_ef_sc_hd__decap_12
XFILLER_0_26_19 VGND VGND VPWR VPWR sky130_fd_sc_hd__fill_1
Xhold42 registers\[2\]\[6\] VGND VGND VPWR VPWR net76 sky130_fd_sc_hd__dlygate4sd3_1
Xhold20 registers\[7\]\[7\] VGND VGND VPWR VPWR net54 sky130_fd_sc_hd__dlygate4sd3_1
Xhold53 registers\[2\]\[7\] VGND VGND VPWR VPWR net87 sky130_fd_sc_hd__dlygate4sd3_1
Xhold31 registers\[6\]\[2\] VGND VGND VPWR VPWR net65 sky130_fd_sc_hd__dlygate4sd3_1
Xhold64 registers\[0\]\[7\] VGND VGND VPWR VPWR net98 sky130_fd_sc_hd__dlygate4sd3_1
XFILLER_0_21_110 VGND VGND VPWR VPWR sky130_fd_sc_hd__fill_2
XFILLER_0_16_85 VGND VGND VPWR VPWR sky130_fd_sc_hd__decap_6
XPHY_EDGE_ROW_6_Right_6 VGND VGND VPWR VPWR sky130_fd_sc_hd__decap_3
Xoutput32 net32 VGND VGND VPWR VPWR readData2[5] sky130_fd_sc_hd__buf_2
Xoutput21 net21 VGND VGND VPWR VPWR readData1[2] sky130_fd_sc_hd__buf_2
XFILLER_0_27_73 VPWR VGND VPWR VGND sky130_ef_sc_hd__decap_12
X_361_ net50 net8 _167_ VGND VGND VPWR VPWR _168_ sky130_fd_sc_hd__mux2_1
X_292_ registers\[1\]\[0\] _111_ VGND VGND VPWR VPWR _115_ sky130_fd_sc_hd__or2b_1
X_430_ _204_ VGND VGND VPWR VPWR _205_ sky130_fd_sc_hd__clkbuf_4
X_344_ _158_ VGND VGND VPWR VPWR _000_ sky130_fd_sc_hd__clkbuf_1
X_413_ net41 net8 _195_ VGND VGND VPWR VPWR _196_ sky130_fd_sc_hd__mux2_1
X_275_ registers\[4\]\[6\] registers\[5\]\[6\] registers\[6\]\[6\] registers\[7\]\[6\]
+ _065_ _066_ VGND VGND VPWR VPWR _100_ sky130_fd_sc_hd__mux4_1
XTAP_TAPCELL_ROW_11_100 VGND VPWR sky130_fd_sc_hd__tapvpwrvgnd_1
XFILLER_0_28_116 VGND VGND VPWR VPWR sky130_fd_sc_hd__decap_4
X_258_ registers\[1\]\[3\] _070_ VGND VGND VPWR VPWR _086_ sky130_fd_sc_hd__or2b_1
X_327_ _142_ _143_ _144_ _113_ net3 VGND VGND VPWR VPWR _145_ sky130_fd_sc_hd__a221o_1
XFILLER_0_1_52 VGND VGND VPWR VPWR sky130_fd_sc_hd__decap_4
Xhold21 registers\[2\]\[4\] VGND VGND VPWR VPWR net55 sky130_fd_sc_hd__dlygate4sd3_1
Xhold43 registers\[2\]\[3\] VGND VGND VPWR VPWR net77 sky130_fd_sc_hd__dlygate4sd3_1
Xhold54 registers\[3\]\[4\] VGND VGND VPWR VPWR net88 sky130_fd_sc_hd__dlygate4sd3_1
XFILLER_0_21_166 VGND VGND VPWR VPWR sky130_fd_sc_hd__fill_2
Xhold32 registers\[1\]\[6\] VGND VGND VPWR VPWR net66 sky130_fd_sc_hd__dlygate4sd3_1
Xhold10 registers\[6\]\[7\] VGND VGND VPWR VPWR net44 sky130_fd_sc_hd__dlygate4sd3_1
Xoutput22 net22 VGND VGND VPWR VPWR readData1[3] sky130_fd_sc_hd__clkbuf_4
Xoutput33 net33 VGND VGND VPWR VPWR readData2[6] sky130_fd_sc_hd__buf_2
XFILLER_0_9_3 VPWR VGND VPWR VGND sky130_ef_sc_hd__decap_12
XFILLER_0_27_85 VGND VGND VPWR VPWR sky130_fd_sc_hd__decap_4
X_291_ registers\[4\]\[0\] registers\[5\]\[0\] registers\[6\]\[0\] registers\[7\]\[0\]
+ _111_ _113_ VGND VGND VPWR VPWR _114_ sky130_fd_sc_hd__mux4_1
X_360_ _166_ VGND VGND VPWR VPWR _167_ sky130_fd_sc_hd__clkbuf_4
XFILLER_0_4_141 VGND VGND VPWR VPWR sky130_fd_sc_hd__decap_4
XFILLER_0_7_84 VGND VGND VPWR VPWR sky130_fd_sc_hd__fill_1
X_489_ clknet_3_1__leaf_clk _007_ VGND VGND VPWR VPWR registers\[6\]\[7\] sky130_fd_sc_hd__dfxtp_1
X_343_ net36 net8 _157_ VGND VGND VPWR VPWR _158_ sky130_fd_sc_hd__mux2_1
X_274_ _064_ _095_ _099_ VGND VGND VPWR VPWR net32 sky130_fd_sc_hd__o21a_1
X_412_ net18 net16 net7 net17 VGND VGND VPWR VPWR _195_ sky130_fd_sc_hd__and4bb_4
XFILLER_0_4_85 VGND VGND VPWR VPWR sky130_fd_sc_hd__decap_3
X_257_ registers\[4\]\[3\] registers\[5\]\[3\] registers\[6\]\[3\] registers\[7\]\[3\]
+ _065_ _066_ VGND VGND VPWR VPWR _085_ sky130_fd_sc_hd__mux4_1
X_326_ registers\[2\]\[5\] registers\[3\]\[5\] _118_ VGND VGND VPWR VPWR _144_ sky130_fd_sc_hd__mux2_1
XPHY_EDGE_ROW_8_Left_39 VGND VGND VPWR VPWR sky130_fd_sc_hd__decap_3
XFILLER_0_21_10 VGND VGND VPWR VPWR sky130_fd_sc_hd__decap_6
X_309_ _127_ _128_ _129_ _113_ net3 VGND VGND VPWR VPWR _130_ sky130_fd_sc_hd__a221o_1
XFILLER_0_21_65 VGND VGND VPWR VPWR sky130_fd_sc_hd__decap_4
Xhold11 registers\[5\]\[5\] VGND VGND VPWR VPWR net45 sky130_fd_sc_hd__dlygate4sd3_1
Xhold44 registers\[7\]\[3\] VGND VGND VPWR VPWR net78 sky130_fd_sc_hd__dlygate4sd3_1
Xhold22 registers\[1\]\[0\] VGND VGND VPWR VPWR net56 sky130_fd_sc_hd__dlygate4sd3_1
Xhold33 registers\[4\]\[2\] VGND VGND VPWR VPWR net67 sky130_fd_sc_hd__dlygate4sd3_1
Xhold55 registers\[1\]\[2\] VGND VGND VPWR VPWR net89 sky130_fd_sc_hd__dlygate4sd3_1
Xoutput23 net23 VGND VGND VPWR VPWR readData1[4] sky130_fd_sc_hd__buf_2
Xoutput34 net34 VGND VGND VPWR VPWR readData2[7] sky130_fd_sc_hd__buf_2
XFILLER_0_5_109 VGND VGND VPWR VPWR sky130_fd_sc_hd__decap_3
X_290_ _112_ VGND VGND VPWR VPWR _113_ sky130_fd_sc_hd__clkbuf_4
XFILLER_0_13_22 VGND VGND VPWR VPWR sky130_fd_sc_hd__decap_4
X_488_ clknet_3_4__leaf_clk _006_ VGND VGND VPWR VPWR registers\[6\]\[6\] sky130_fd_sc_hd__dfxtp_1
XFILLER_0_1_167 VGND VGND VPWR VPWR sky130_fd_sc_hd__fill_1
X_273_ _096_ _097_ _098_ _067_ net6 VGND VGND VPWR VPWR _099_ sky130_fd_sc_hd__a221o_1
X_342_ _156_ VGND VGND VPWR VPWR _157_ sky130_fd_sc_hd__clkbuf_4
X_411_ _194_ VGND VGND VPWR VPWR _031_ sky130_fd_sc_hd__clkbuf_1
XFILLER_0_28_129 VGND VGND VPWR VPWR sky130_fd_sc_hd__fill_2
XPHY_EDGE_ROW_24_Left_55 VGND VGND VPWR VPWR sky130_fd_sc_hd__decap_3
XFILLER_0_19_87 VGND VGND VPWR VPWR sky130_fd_sc_hd__fill_1
X_325_ registers\[0\]\[5\] _118_ net2 VGND VGND VPWR VPWR _143_ sky130_fd_sc_hd__o21ba_1
X_256_ _064_ _080_ _084_ VGND VGND VPWR VPWR net29 sky130_fd_sc_hd__o21a_1
XFILLER_0_10_78 VGND VGND VPWR VPWR sky130_fd_sc_hd__decap_6
XFILLER_0_27_151 VPWR VGND VPWR VGND sky130_ef_sc_hd__decap_12
XFILLER_0_18_151 VGND VGND VPWR VPWR sky130_fd_sc_hd__decap_6
Xclkload0 clknet_3_0__leaf_clk VGND VGND VPWR VPWR clkload0/X sky130_fd_sc_hd__clkbuf_4
XFILLER_0_24_132 VGND VGND VPWR VPWR sky130_fd_sc_hd__decap_8
XFILLER_0_21_55 VGND VGND VPWR VPWR sky130_fd_sc_hd__fill_1
XFILLER_0_21_44 VGND VGND VPWR VPWR sky130_fd_sc_hd__fill_1
XFILLER_0_21_33 VGND VGND VPWR VPWR sky130_fd_sc_hd__fill_1
X_308_ registers\[2\]\[2\] registers\[3\]\[2\] _118_ VGND VGND VPWR VPWR _129_ sky130_fd_sc_hd__mux2_1
X_239_ net4 VGND VGND VPWR VPWR _070_ sky130_fd_sc_hd__buf_2
Xhold34 registers\[4\]\[3\] VGND VGND VPWR VPWR net68 sky130_fd_sc_hd__dlygate4sd3_1
Xhold23 registers\[1\]\[5\] VGND VGND VPWR VPWR net57 sky130_fd_sc_hd__dlygate4sd3_1
Xhold45 registers\[3\]\[1\] VGND VGND VPWR VPWR net79 sky130_fd_sc_hd__dlygate4sd3_1
Xhold12 registers\[5\]\[2\] VGND VGND VPWR VPWR net46 sky130_fd_sc_hd__dlygate4sd3_1
Xhold56 registers\[3\]\[7\] VGND VGND VPWR VPWR net90 sky130_fd_sc_hd__dlygate4sd3_1
XFILLER_0_21_113 VGND VGND VPWR VPWR sky130_fd_sc_hd__fill_1
XFILLER_0_21_102 VGND VGND VPWR VPWR sky130_fd_sc_hd__decap_8
XFILLER_0_16_66 VGND VGND VPWR VPWR sky130_fd_sc_hd__fill_1
XFILLER_0_8_118 VGND VGND VPWR VPWR sky130_fd_sc_hd__fill_2
XFILLER_0_12_113 VGND VGND VPWR VPWR sky130_fd_sc_hd__fill_2
Xoutput24 net24 VGND VGND VPWR VPWR readData1[5] sky130_fd_sc_hd__clkbuf_4
XFILLER_0_25_3 VPWR VGND VPWR VGND sky130_ef_sc_hd__decap_12
XFILLER_0_12_179 VGND VGND VPWR VPWR sky130_fd_sc_hd__decap_3
XPHY_EDGE_ROW_11_Left_42 VGND VGND VPWR VPWR sky130_fd_sc_hd__decap_3
XPHY_EDGE_ROW_28_Right_28 VGND VGND VPWR VPWR sky130_fd_sc_hd__decap_3
XPHY_EDGE_ROW_19_Right_19 VGND VGND VPWR VPWR sky130_fd_sc_hd__decap_3
XTAP_TAPCELL_ROW_18_119 VGND VPWR sky130_fd_sc_hd__tapvpwrvgnd_1
Xclkbuf_3_1__f_clk clknet_0_clk VGND VGND VPWR VPWR clknet_3_1__leaf_clk sky130_fd_sc_hd__clkbuf_16
XFILLER_0_27_32 VGND VGND VPWR VPWR sky130_fd_sc_hd__fill_2
X_487_ clknet_3_6__leaf_clk _005_ VGND VGND VPWR VPWR registers\[6\]\[5\] sky130_fd_sc_hd__dfxtp_1
XFILLER_0_13_78 VGND VGND VPWR VPWR sky130_fd_sc_hd__fill_2
XFILLER_0_1_113 VGND VGND VPWR VPWR sky130_fd_sc_hd__fill_2
XTAP_TAPCELL_ROW_20_125 VGND VPWR sky130_fd_sc_hd__tapvpwrvgnd_1
X_272_ registers\[2\]\[5\] registers\[3\]\[5\] _072_ VGND VGND VPWR VPWR _098_ sky130_fd_sc_hd__mux2_1
X_410_ net90 net15 _186_ VGND VGND VPWR VPWR _194_ sky130_fd_sc_hd__mux2_1
X_341_ net16 net7 net18 net17 VGND VGND VPWR VPWR _156_ sky130_fd_sc_hd__and4b_1
X_539_ clknet_3_0__leaf_clk _057_ VGND VGND VPWR VPWR registers\[7\]\[1\] sky130_fd_sc_hd__dfxtp_1
X_324_ registers\[1\]\[5\] _116_ VGND VGND VPWR VPWR _142_ sky130_fd_sc_hd__or2b_1
X_255_ _081_ _082_ _083_ _067_ net6 VGND VGND VPWR VPWR _084_ sky130_fd_sc_hd__a221o_1
XFILLER_0_27_163 VGND VGND VPWR VPWR sky130_fd_sc_hd__decap_4
XFILLER_0_27_141 VGND VGND VPWR VPWR sky130_fd_sc_hd__fill_1
XTAP_TAPCELL_ROW_9_92 VGND VPWR sky130_fd_sc_hd__tapvpwrvgnd_1
XFILLER_0_18_141 VGND VGND VPWR VPWR sky130_fd_sc_hd__fill_2
Xclkload1 clknet_3_1__leaf_clk VGND VGND VPWR VPWR clkload1/Y sky130_fd_sc_hd__clkinvlp_2
XFILLER_0_21_78 VGND VGND VPWR VPWR sky130_fd_sc_hd__decap_3
X_238_ registers\[1\]\[0\] _065_ VGND VGND VPWR VPWR _069_ sky130_fd_sc_hd__or2b_1
X_307_ registers\[0\]\[2\] _116_ _112_ VGND VGND VPWR VPWR _128_ sky130_fd_sc_hd__o21ba_1
XFILLER_0_30_169 VPWR VGND VPWR VGND sky130_ef_sc_hd__decap_12
Xhold46 registers\[4\]\[5\] VGND VGND VPWR VPWR net80 sky130_fd_sc_hd__dlygate4sd3_1
Xhold35 registers\[6\]\[4\] VGND VGND VPWR VPWR net69 sky130_fd_sc_hd__dlygate4sd3_1
Xhold24 registers\[1\]\[3\] VGND VGND VPWR VPWR net58 sky130_fd_sc_hd__dlygate4sd3_1
XFILLER_0_15_111 VGND VGND VPWR VPWR sky130_fd_sc_hd__fill_1
Xhold57 registers\[0\]\[5\] VGND VGND VPWR VPWR net91 sky130_fd_sc_hd__dlygate4sd3_1
Xhold13 registers\[2\]\[2\] VGND VGND VPWR VPWR net47 sky130_fd_sc_hd__dlygate4sd3_1
XFILLER_0_21_169 VGND VGND VPWR VPWR sky130_fd_sc_hd__fill_1
XFILLER_0_12_147 VGND VGND VPWR VPWR sky130_fd_sc_hd__fill_1
Xoutput25 net25 VGND VGND VPWR VPWR readData1[6] sky130_fd_sc_hd__buf_2
XFILLER_0_4_177 VGND VGND VPWR VPWR sky130_fd_sc_hd__fill_1
XTAP_TAPCELL_ROW_23_134 VGND VPWR sky130_fd_sc_hd__tapvpwrvgnd_1
XFILLER_0_7_3 VPWR VGND VPWR VGND sky130_ef_sc_hd__decap_12
X_486_ clknet_3_6__leaf_clk _004_ VGND VGND VPWR VPWR registers\[6\]\[4\] sky130_fd_sc_hd__dfxtp_1
XFILLER_0_1_169 VPWR VGND VPWR VGND sky130_ef_sc_hd__decap_12
XTAP_TAPCELL_ROW_20_126 VGND VPWR sky130_fd_sc_hd__tapvpwrvgnd_1
X_538_ clknet_3_2__leaf_clk _056_ VGND VGND VPWR VPWR registers\[7\]\[0\] sky130_fd_sc_hd__dfxtp_1
X_271_ _072_ registers\[0\]\[5\] net5 VGND VGND VPWR VPWR _097_ sky130_fd_sc_hd__o21ba_1
X_340_ _110_ _151_ _155_ VGND VGND VPWR VPWR net26 sky130_fd_sc_hd__o21a_1
X_469_ _226_ VGND VGND VPWR VPWR _057_ sky130_fd_sc_hd__clkbuf_1
X_323_ registers\[4\]\[5\] registers\[5\]\[5\] registers\[6\]\[5\] registers\[7\]\[5\]
+ _111_ _112_ VGND VGND VPWR VPWR _141_ sky130_fd_sc_hd__mux4_1
X_254_ registers\[2\]\[2\] registers\[3\]\[2\] _072_ VGND VGND VPWR VPWR _083_ sky130_fd_sc_hd__mux2_1
XFILLER_0_19_45 VGND VGND VPWR VPWR sky130_fd_sc_hd__decap_3
XTAP_TAPCELL_ROW_0_62 VGND VPWR sky130_fd_sc_hd__tapvpwrvgnd_1
XTAP_TAPCELL_ROW_9_93 VGND VPWR sky130_fd_sc_hd__tapvpwrvgnd_1
Xclkload2 clknet_3_2__leaf_clk VGND VGND VPWR VPWR clkload2/X sky130_fd_sc_hd__clkbuf_4
X_237_ registers\[4\]\[0\] registers\[5\]\[0\] registers\[6\]\[0\] registers\[7\]\[0\]
+ _065_ _067_ VGND VGND VPWR VPWR _068_ sky130_fd_sc_hd__mux4_1
X_306_ registers\[1\]\[2\] _116_ VGND VGND VPWR VPWR _127_ sky130_fd_sc_hd__or2b_1
Xhold47 registers\[7\]\[4\] VGND VGND VPWR VPWR net81 sky130_fd_sc_hd__dlygate4sd3_1
Xhold36 registers\[3\]\[0\] VGND VGND VPWR VPWR net70 sky130_fd_sc_hd__dlygate4sd3_1
Xhold58 registers\[0\]\[0\] VGND VGND VPWR VPWR net92 sky130_fd_sc_hd__dlygate4sd3_1
Xhold25 registers\[7\]\[2\] VGND VGND VPWR VPWR net59 sky130_fd_sc_hd__dlygate4sd3_1
Xhold14 registers\[6\]\[6\] VGND VGND VPWR VPWR net48 sky130_fd_sc_hd__dlygate4sd3_1
XFILLER_0_21_137 VGND VGND VPWR VPWR sky130_fd_sc_hd__decap_4
XFILLER_0_21_126 VGND VGND VPWR VPWR sky130_fd_sc_hd__decap_4
XFILLER_0_16_57 VGND VGND VPWR VPWR sky130_fd_sc_hd__fill_1
XTAP_TAPCELL_ROW_6_83 VGND VPWR sky130_fd_sc_hd__tapvpwrvgnd_1
XTAP_TAPCELL_ROW_26_143 VGND VPWR sky130_fd_sc_hd__tapvpwrvgnd_1
XPHY_EDGE_ROW_1_Right_1 VGND VGND VPWR VPWR sky130_fd_sc_hd__decap_3
Xoutput26 net26 VGND VGND VPWR VPWR readData1[7] sky130_fd_sc_hd__buf_2
XFILLER_0_27_89 VGND VGND VPWR VPWR sky130_fd_sc_hd__fill_1
XFILLER_0_30_3 VPWR VGND VPWR VGND sky130_ef_sc_hd__decap_12
XTAP_TAPCELL_ROW_23_135 VGND VPWR sky130_fd_sc_hd__tapvpwrvgnd_1
XFILLER_0_7_88 VPWR VGND VPWR VGND sky130_ef_sc_hd__decap_12
X_485_ clknet_3_3__leaf_clk _003_ VGND VGND VPWR VPWR registers\[6\]\[3\] sky130_fd_sc_hd__dfxtp_1
XTAP_TAPCELL_ROW_20_127 VGND VPWR sky130_fd_sc_hd__tapvpwrvgnd_1
XFILLER_0_0_181 VGND VGND VPWR VPWR sky130_fd_sc_hd__fill_1
X_270_ registers\[1\]\[5\] _070_ VGND VGND VPWR VPWR _096_ sky130_fd_sc_hd__or2b_1
X_399_ _188_ VGND VGND VPWR VPWR _025_ sky130_fd_sc_hd__clkbuf_1
XFILLER_0_4_23 VGND VGND VPWR VPWR sky130_fd_sc_hd__decap_4
X_537_ clknet_3_1__leaf_clk _055_ VGND VGND VPWR VPWR registers\[1\]\[7\] sky130_fd_sc_hd__dfxtp_1
X_468_ net53 net9 _224_ VGND VGND VPWR VPWR _226_ sky130_fd_sc_hd__mux2_1
X_322_ _110_ _136_ _140_ VGND VGND VPWR VPWR net23 sky130_fd_sc_hd__o21a_1
Xclkbuf_3_7__f_clk clknet_0_clk VGND VGND VPWR VPWR clknet_3_7__leaf_clk sky130_fd_sc_hd__clkbuf_16
XFILLER_0_19_57 VGND VGND VPWR VPWR sky130_fd_sc_hd__decap_3
XTAP_TAPCELL_ROW_0_63 VGND VPWR sky130_fd_sc_hd__tapvpwrvgnd_1
X_253_ _070_ registers\[0\]\[2\] _066_ VGND VGND VPWR VPWR _082_ sky130_fd_sc_hd__o21ba_1
XTAP_TAPCELL_ROW_9_94 VGND VPWR sky130_fd_sc_hd__tapvpwrvgnd_1
XFILLER_0_10_15 VPWR VGND VPWR VGND sky130_ef_sc_hd__decap_12
XFILLER_0_10_37 VGND VGND VPWR VPWR sky130_fd_sc_hd__fill_2
XFILLER_0_10_48 VPWR VGND VPWR VGND sky130_ef_sc_hd__decap_12
Xclkload3 clknet_3_4__leaf_clk VGND VGND VPWR VPWR clkload3/Y sky130_fd_sc_hd__bufinv_16
XPHY_EDGE_ROW_28_Left_59 VGND VGND VPWR VPWR sky130_fd_sc_hd__decap_3
XFILLER_0_21_25 VGND VGND VPWR VPWR sky130_fd_sc_hd__decap_8
X_305_ registers\[4\]\[2\] registers\[5\]\[2\] registers\[6\]\[2\] registers\[7\]\[2\]
+ _111_ _112_ VGND VGND VPWR VPWR _126_ sky130_fd_sc_hd__mux4_1
X_236_ _066_ VGND VGND VPWR VPWR _067_ sky130_fd_sc_hd__clkbuf_4
XFILLER_0_15_113 VGND VGND VPWR VPWR sky130_fd_sc_hd__fill_2
Xhold15 registers\[7\]\[5\] VGND VGND VPWR VPWR net49 sky130_fd_sc_hd__dlygate4sd3_1
Xhold37 registers\[5\]\[4\] VGND VGND VPWR VPWR net71 sky130_fd_sc_hd__dlygate4sd3_1
Xhold26 registers\[7\]\[0\] VGND VGND VPWR VPWR net60 sky130_fd_sc_hd__dlygate4sd3_1
Xhold59 registers\[0\]\[4\] VGND VGND VPWR VPWR net93 sky130_fd_sc_hd__dlygate4sd3_1
Xhold48 registers\[3\]\[2\] VGND VGND VPWR VPWR net82 sky130_fd_sc_hd__dlygate4sd3_1
XTAP_TAPCELL_ROW_29_152 VGND VPWR sky130_fd_sc_hd__tapvpwrvgnd_1
XTAP_TAPCELL_ROW_6_84 VGND VPWR sky130_fd_sc_hd__tapvpwrvgnd_1
XTAP_TAPCELL_ROW_26_144 VGND VPWR sky130_fd_sc_hd__tapvpwrvgnd_1
Xoutput27 net27 VGND VGND VPWR VPWR readData2[0] sky130_fd_sc_hd__buf_2
Xclkbuf_0_clk clk VGND VGND VPWR VPWR clknet_0_clk sky130_fd_sc_hd__clkbuf_16
XPHY_EDGE_ROW_24_Right_24 VGND VGND VPWR VPWR sky130_fd_sc_hd__decap_3
XTAP_TAPCELL_ROW_23_136 VGND VPWR sky130_fd_sc_hd__tapvpwrvgnd_1
XFILLER_0_23_3 VGND VGND VPWR VPWR sky130_fd_sc_hd__fill_1
XPHY_EDGE_ROW_15_Right_15 VGND VGND VPWR VPWR sky130_fd_sc_hd__decap_3
XPHY_EDGE_ROW_15_Left_46 VGND VGND VPWR VPWR sky130_fd_sc_hd__decap_3
XFILLER_0_7_78 VGND VGND VPWR VPWR sky130_fd_sc_hd__decap_6
XTAP_TAPCELL_ROW_3_74 VGND VPWR sky130_fd_sc_hd__tapvpwrvgnd_1
X_484_ clknet_3_0__leaf_clk _002_ VGND VGND VPWR VPWR registers\[6\]\[2\] sky130_fd_sc_hd__dfxtp_1
X_467_ _225_ VGND VGND VPWR VPWR _056_ sky130_fd_sc_hd__clkbuf_1
X_398_ net79 net9 _186_ VGND VGND VPWR VPWR _188_ sky130_fd_sc_hd__mux2_1
X_536_ clknet_3_4__leaf_clk _054_ VGND VGND VPWR VPWR registers\[1\]\[6\] sky130_fd_sc_hd__dfxtp_1
XFILLER_0_4_46 VGND VGND VPWR VPWR sky130_fd_sc_hd__decap_3
XFILLER_0_4_79 VGND VGND VPWR VPWR sky130_fd_sc_hd__decap_4
X_321_ _137_ _138_ _139_ _113_ net3 VGND VGND VPWR VPWR _140_ sky130_fd_sc_hd__a221o_1
XTAP_TAPCELL_ROW_0_64 VGND VPWR sky130_fd_sc_hd__tapvpwrvgnd_1
X_252_ registers\[1\]\[2\] _070_ VGND VGND VPWR VPWR _081_ sky130_fd_sc_hd__or2b_1
XFILLER_0_10_27 VGND VGND VPWR VPWR sky130_fd_sc_hd__fill_1
XFILLER_0_18_133 VGND VGND VPWR VPWR sky130_fd_sc_hd__decap_6
X_519_ clknet_3_7__leaf_clk _037_ VGND VGND VPWR VPWR registers\[2\]\[5\] sky130_fd_sc_hd__dfxtp_1
X_235_ net5 VGND VGND VPWR VPWR _066_ sky130_fd_sc_hd__clkbuf_4
X_304_ _110_ _121_ _125_ VGND VGND VPWR VPWR net20 sky130_fd_sc_hd__o21a_1
XPHY_EDGE_ROW_3_Left_34 VGND VGND VPWR VPWR sky130_fd_sc_hd__decap_3
Xclkload4 clknet_3_5__leaf_clk VGND VGND VPWR VPWR clkload4/Y sky130_fd_sc_hd__clkinvlp_2
XFILLER_0_30_139 VGND VGND VPWR VPWR sky130_fd_sc_hd__fill_1
Xhold16 registers\[5\]\[0\] VGND VGND VPWR VPWR net50 sky130_fd_sc_hd__dlygate4sd3_1
Xhold49 registers\[3\]\[5\] VGND VGND VPWR VPWR net83 sky130_fd_sc_hd__dlygate4sd3_1
Xhold38 registers\[4\]\[6\] VGND VGND VPWR VPWR net72 sky130_fd_sc_hd__dlygate4sd3_1
Xhold27 registers\[1\]\[7\] VGND VGND VPWR VPWR net61 sky130_fd_sc_hd__dlygate4sd3_1
XTAP_TAPCELL_ROW_10_95 VGND VPWR sky130_fd_sc_hd__tapvpwrvgnd_1
XTAP_TAPCELL_ROW_29_153 VGND VPWR sky130_fd_sc_hd__tapvpwrvgnd_1
XFILLER_0_12_139 VGND VGND VPWR VPWR sky130_fd_sc_hd__fill_1
XTAP_TAPCELL_ROW_6_85 VGND VPWR sky130_fd_sc_hd__tapvpwrvgnd_1
Xoutput28 net28 VGND VGND VPWR VPWR readData2[1] sky130_fd_sc_hd__buf_2
XFILLER_0_7_100 VGND VGND VPWR VPWR sky130_fd_sc_hd__decap_4
XTAP_TAPCELL_ROW_26_145 VGND VPWR sky130_fd_sc_hd__tapvpwrvgnd_1
XFILLER_0_3_180 VGND VGND VPWR VPWR sky130_fd_sc_hd__fill_2
X_483_ clknet_3_0__leaf_clk _001_ VGND VGND VPWR VPWR registers\[6\]\[1\] sky130_fd_sc_hd__dfxtp_1
XTAP_TAPCELL_ROW_3_75 VGND VPWR sky130_fd_sc_hd__tapvpwrvgnd_1
X_466_ net60 net8 _224_ VGND VGND VPWR VPWR _225_ sky130_fd_sc_hd__mux2_1
X_397_ _187_ VGND VGND VPWR VPWR _024_ sky130_fd_sc_hd__clkbuf_1
X_535_ clknet_3_6__leaf_clk _053_ VGND VGND VPWR VPWR registers\[1\]\[5\] sky130_fd_sc_hd__dfxtp_1
XFILLER_0_5_3 VPWR VGND VPWR VGND sky130_ef_sc_hd__decap_12
XFILLER_0_14_81 VGND VGND VPWR VPWR sky130_fd_sc_hd__decap_3
X_320_ registers\[2\]\[4\] registers\[3\]\[4\] _118_ VGND VGND VPWR VPWR _139_ sky130_fd_sc_hd__mux2_1
XTAP_TAPCELL_ROW_0_65 VGND VPWR sky130_fd_sc_hd__tapvpwrvgnd_1
X_251_ registers\[4\]\[2\] registers\[5\]\[2\] registers\[6\]\[2\] registers\[7\]\[2\]
+ _065_ _066_ VGND VGND VPWR VPWR _080_ sky130_fd_sc_hd__mux4_1
XFILLER_0_27_167 VGND VGND VPWR VPWR sky130_fd_sc_hd__fill_1
X_518_ clknet_3_7__leaf_clk _036_ VGND VGND VPWR VPWR registers\[2\]\[4\] sky130_fd_sc_hd__dfxtp_1
X_449_ _215_ VGND VGND VPWR VPWR _048_ sky130_fd_sc_hd__clkbuf_1
Xclkload5 clknet_3_6__leaf_clk VGND VGND VPWR VPWR clkload5/Y sky130_fd_sc_hd__clkinv_1
XFILLER_0_18_112 VPWR VGND VPWR VGND sky130_ef_sc_hd__decap_12
XFILLER_0_21_16 VGND VGND VPWR VPWR sky130_fd_sc_hd__fill_1
X_303_ _122_ _123_ _124_ _113_ net3 VGND VGND VPWR VPWR _125_ sky130_fd_sc_hd__a221o_1
XFILLER_0_1_15 VPWR VGND VPWR VGND sky130_ef_sc_hd__decap_12
X_234_ net4 VGND VGND VPWR VPWR _065_ sky130_fd_sc_hd__buf_4
XFILLER_0_30_107 VGND VGND VPWR VPWR sky130_fd_sc_hd__fill_2
Xhold28 registers\[5\]\[3\] VGND VGND VPWR VPWR net62 sky130_fd_sc_hd__dlygate4sd3_1
Xhold39 registers\[6\]\[1\] VGND VGND VPWR VPWR net73 sky130_fd_sc_hd__dlygate4sd3_1
Xhold17 registers\[5\]\[7\] VGND VGND VPWR VPWR net51 sky130_fd_sc_hd__dlygate4sd3_1
XTAP_TAPCELL_ROW_10_96 VGND VPWR sky130_fd_sc_hd__tapvpwrvgnd_1
XTAP_TAPCELL_ROW_29_154 VGND VPWR sky130_fd_sc_hd__tapvpwrvgnd_1
Xoutput29 net29 VGND VGND VPWR VPWR readData2[2] sky130_fd_sc_hd__buf_2
XFILLER_0_11_162 VGND VGND VPWR VPWR sky130_fd_sc_hd__fill_2
XFILLER_0_27_15 VGND VGND VPWR VPWR sky130_fd_sc_hd__fill_1
XPHY_EDGE_ROW_5_Right_5 VGND VGND VPWR VPWR sky130_fd_sc_hd__decap_3
X_482_ clknet_3_2__leaf_clk _000_ VGND VGND VPWR VPWR registers\[6\]\[0\] sky130_fd_sc_hd__dfxtp_1
XTAP_TAPCELL_ROW_3_76 VGND VPWR sky130_fd_sc_hd__tapvpwrvgnd_1
XFILLER_0_24_38 VGND VGND VPWR VPWR sky130_fd_sc_hd__fill_2
X_534_ clknet_3_6__leaf_clk _052_ VGND VGND VPWR VPWR registers\[1\]\[4\] sky130_fd_sc_hd__dfxtp_1
X_396_ net70 net8 _186_ VGND VGND VPWR VPWR _187_ sky130_fd_sc_hd__mux2_1
X_465_ _223_ VGND VGND VPWR VPWR _224_ sky130_fd_sc_hd__clkbuf_4
XFILLER_0_14_93 VGND VGND VPWR VPWR sky130_fd_sc_hd__decap_3
XFILLER_0_4_15 VGND VGND VPWR VPWR sky130_fd_sc_hd__decap_4
X_250_ _064_ _075_ _079_ VGND VGND VPWR VPWR net28 sky130_fd_sc_hd__o21a_1
XFILLER_0_27_113 VPWR VGND VPWR VGND sky130_ef_sc_hd__decap_12
XFILLER_0_27_102 VGND VGND VPWR VPWR sky130_fd_sc_hd__fill_2
X_379_ _177_ VGND VGND VPWR VPWR _016_ sky130_fd_sc_hd__clkbuf_1
X_517_ clknet_3_3__leaf_clk _035_ VGND VGND VPWR VPWR registers\[2\]\[3\] sky130_fd_sc_hd__dfxtp_1
X_448_ net56 net8 _214_ VGND VGND VPWR VPWR _215_ sky130_fd_sc_hd__mux2_1
XTAP_TAPCELL_ROW_0_66 VGND VPWR sky130_fd_sc_hd__tapvpwrvgnd_1
Xclkload6 clknet_3_7__leaf_clk VGND VGND VPWR VPWR clkload6/Y sky130_fd_sc_hd__clkinv_1
XFILLER_0_18_124 VGND VGND VPWR VPWR sky130_fd_sc_hd__decap_3
X_233_ net6 VGND VGND VPWR VPWR _064_ sky130_fd_sc_hd__inv_2
X_302_ registers\[2\]\[1\] registers\[3\]\[1\] _118_ VGND VGND VPWR VPWR _124_ sky130_fd_sc_hd__mux2_1
XFILLER_0_1_27 VGND VGND VPWR VPWR sky130_fd_sc_hd__decap_6
Xhold29 registers\[1\]\[4\] VGND VGND VPWR VPWR net63 sky130_fd_sc_hd__dlygate4sd3_1
Xhold18 registers\[2\]\[5\] VGND VGND VPWR VPWR net52 sky130_fd_sc_hd__dlygate4sd3_1
XFILLER_0_15_149 VGND VGND VPWR VPWR sky130_fd_sc_hd__decap_3
XTAP_TAPCELL_ROW_10_97 VGND VPWR sky130_fd_sc_hd__tapvpwrvgnd_1