*SPEF "ieee 1481-1999"
*DESIGN "register_file"
*DATE "19:16:16 Sunday May 25, 2025"
*VENDOR "The OpenROAD Project"
*PROGRAM "OpenROAD"
*VERSION "b16bda7e82721d10566ff7e2b68f1ff0be9f9e38"
*DESIGN_FLOW "NAME_SCOPE LOCAL" "PIN_CAP NONE"
*DIVIDER /
*DELIMITER :
*BUS_DELIMITER []
*T_UNIT 1 NS
*C_UNIT 1 PF
*R_UNIT 1 OHM
*L_UNIT 1 HENRY

*NAME_MAP
*3 clk
*4 readData1[0]
*5 readData1[1]
*6 readData1[2]
*7 readData1[3]
*8 readData1[4]
*9 readData1[5]
*10 readData1[6]
*11 readData1[7]
*12 readData2[0]
*13 readData2[1]
*14 readData2[2]
*15 readData2[3]
*16 readData2[4]
*17 readData2[5]
*18 readData2[6]
*19 readData2[7]
*20 readReg1[0]
*21 readReg1[1]
*22 readReg1[2]
*23 readReg2[0]
*24 readReg2[1]
*25 readReg2[2]
*26 regWrite
*27 writeData[0]
*28 writeData[1]
*29 writeData[2]
*30 writeData[3]
*31 writeData[4]
*32 writeData[5]
*33 writeData[6]
*34 writeData[7]
*35 writeReg[0]
*36 writeReg[1]
*37 writeReg[2]
*38 _000_
*39 _001_
*40 _002_
*41 _003_
*42 _004_
*43 _005_
*44 _006_
*45 _007_
*46 _008_
*47 _009_
*48 _010_
*49 _011_
*50 _012_
*51 _013_
*52 _014_
*53 _015_
*54 _016_
*55 _017_
*56 _018_
*57 _019_
*58 _020_
*59 _021_
*60 _022_
*61 _023_
*62 _024_
*63 _025_
*64 _026_
*65 _027_
*66 _028_
*67 _029_
*68 _030_
*69 _031_
*70 _032_
*71 _033_
*72 _034_
*73 _035_
*74 _036_
*75 _037_
*76 _038_
*77 _039_
*78 _040_
*79 _041_
*80 _042_
*81 _043_
*82 _044_
*83 _045_
*84 _046_
*85 _047_
*86 _048_
*87 _049_
*88 _050_
*89 _051_
*90 _052_
*91 _053_
*92 _054_
*93 _055_
*94 _056_
*95 _057_
*96 _058_
*97 _059_
*98 _060_
*99 _061_
*100 _062_
*101 _063_
*102 _064_
*103 _065_
*104 _066_
*105 _067_
*106 _068_
*107 _069_
*108 _070_
*109 _071_
*110 _072_
*111 _073_
*112 _074_
*113 _075_
*114 _076_
*115 _077_
*116 _078_
*117 _079_
*118 _080_
*119 _081_
*120 _082_
*121 _083_
*122 _084_
*123 _085_
*124 _086_
*125 _087_
*126 _088_
*127 _089_
*128 _090_
*129 _091_
*130 _092_
*131 _093_
*132 _094_
*133 _095_
*134 _096_
*135 _097_
*136 _098_
*137 _099_
*138 _100_
*139 _101_
*140 _102_
*141 _103_
*142 _104_
*143 _105_
*144 _106_
*145 _107_
*146 _108_
*147 _109_
*148 _110_
*149 _111_
*150 _112_
*151 _113_
*152 _114_
*153 _115_
*154 _116_
*155 _117_
*156 _118_
*157 _119_
*158 _120_
*159 _121_
*160 _122_
*161 _123_
*162 _124_
*163 _125_
*164 _126_
*165 _127_
*166 _128_
*167 _129_
*168 _130_
*169 _131_
*170 _132_
*171 _133_
*172 _134_
*173 _135_
*174 _136_
*175 _137_
*176 _138_
*177 _139_
*178 _140_
*179 _141_
*180 _142_
*181 _143_
*182 _144_
*183 _145_
*184 _146_
*185 _147_
*186 _148_
*187 _149_
*188 _150_
*189 _151_
*190 _152_
*191 _153_
*192 _154_
*193 _155_
*194 _156_
*195 _157_
*196 _158_
*197 _159_
*198 _160_
*199 _161_
*200 _162_
*201 _163_
*202 _164_
*203 _165_
*204 _166_
*205 _167_
*206 _168_
*207 _169_
*208 _170_
*209 _171_
*210 _172_
*211 _173_
*212 _174_
*213 _175_
*214 _176_
*215 _177_
*216 _178_
*217 _179_
*218 _180_
*219 _181_
*220 _182_
*221 _183_
*222 _184_
*223 _185_
*224 _186_
*225 _187_
*226 _188_
*227 _189_
*228 _190_
*229 _191_
*230 _192_
*231 _193_
*232 _194_
*233 _195_
*234 _196_
*235 _197_
*236 _198_
*237 _199_
*238 _200_
*239 _201_
*240 _202_
*241 _203_
*242 _204_
*243 _205_
*244 _206_
*245 _207_
*246 _208_
*247 _209_
*248 _210_
*249 _211_
*250 _212_
*251 _213_
*252 _214_
*253 _215_
*254 _216_
*255 _217_
*256 _218_
*257 _219_
*258 _220_
*259 _221_
*260 _222_
*261 _223_
*262 _224_
*263 _225_
*264 _226_
*265 _227_
*266 _228_
*267 _229_
*268 _230_
*269 _231_
*270 _232_
*271 clknet_0_clk
*272 clknet_3_0__leaf_clk
*273 clknet_3_1__leaf_clk
*274 clknet_3_2__leaf_clk
*275 clknet_3_3__leaf_clk
*276 clknet_3_4__leaf_clk
*277 clknet_3_5__leaf_clk
*278 clknet_3_6__leaf_clk
*279 clknet_3_7__leaf_clk
*280 net1
*281 net10
*282 net11
*283 net12
*284 net13
*285 net14
*286 net15
*287 net16
*288 net17
*289 net18
*290 net19
*291 net2
*292 net20
*293 net21
*294 net22
*295 net23
*296 net24
*297 net25
*298 net26
*299 net27
*300 net28
*301 net29
*302 net3
*303 net30
*304 net31
*305 net32
*306 net33
*307 net34
*308 net35
*309 net36
*310 net37
*311 net38
*312 net39
*313 net4
*314 net40
*315 net41
*316 net42
*317 net43
*318 net44
*319 net45
*320 net46
*321 net47
*322 net48
*323 net49
*324 net5
*325 net50
*326 net51
*327 net52
*328 net53
*329 net54
*330 net55
*331 net56
*332 net57
*333 net58
*334 net59
*335 net6
*336 net60
*337 net61
*338 net62
*339 net63
*340 net64
*341 net65
*342 net66
*343 net67
*344 net68
*345 net69
*346 net7
*347 net70
*348 net71
*349 net72
*350 net73
*351 net74
*352 net75
*353 net76
*354 net77
*355 net78
*356 net79
*357 net8
*358 net80
*359 net81
*360 net82
*361 net83
*362 net84
*363 net85
*364 net86
*365 net87
*366 net88
*367 net89
*368 net9
*369 net90
*370 net91
*371 net92
*372 net93
*373 net94
*374 net95
*375 net96
*376 net97
*377 net98
*378 registers\[0\]\[0\]
*379 registers\[0\]\[1\]
*380 registers\[0\]\[2\]
*381 registers\[0\]\[3\]
*382 registers\[0\]\[4\]
*383 registers\[0\]\[5\]
*384 registers\[0\]\[6\]
*385 registers\[0\]\[7\]
*386 registers\[1\]\[0\]
*387 registers\[1\]\[1\]
*388 registers\[1\]\[2\]
*389 registers\[1\]\[3\]
*390 registers\[1\]\[4\]
*391 registers\[1\]\[5\]
*392 registers\[1\]\[6\]
*393 registers\[1\]\[7\]
*394 registers\[2\]\[0\]
*395 registers\[2\]\[1\]
*396 registers\[2\]\[2\]
*397 registers\[2\]\[3\]
*398 registers\[2\]\[4\]
*399 registers\[2\]\[5\]
*400 registers\[2\]\[6\]
*401 registers\[2\]\[7\]
*402 registers\[3\]\[0\]
*403 registers\[3\]\[1\]
*404 registers\[3\]\[2\]
*405 registers\[3\]\[3\]
*406 registers\[3\]\[4\]
*407 registers\[3\]\[5\]
*408 registers\[3\]\[6\]
*409 registers\[3\]\[7\]
*410 registers\[4\]\[0\]
*411 registers\[4\]\[1\]
*412 registers\[4\]\[2\]
*413 registers\[4\]\[3\]
*414 registers\[4\]\[4\]
*415 registers\[4\]\[5\]
*416 registers\[4\]\[6\]
*417 registers\[4\]\[7\]
*418 registers\[5\]\[0\]
*419 registers\[5\]\[1\]
*420 registers\[5\]\[2\]
*421 registers\[5\]\[3\]
*422 registers\[5\]\[4\]
*423 registers\[5\]\[5\]
*424 registers\[5\]\[6\]
*425 registers\[5\]\[7\]
*426 registers\[6\]\[0\]
*427 registers\[6\]\[1\]
*428 registers\[6\]\[2\]
*429 registers\[6\]\[3\]
*430 registers\[6\]\[4\]
*431 registers\[6\]\[5\]
*432 registers\[6\]\[6\]
*433 registers\[6\]\[7\]
*434 registers\[7\]\[0\]
*435 registers\[7\]\[1\]
*436 registers\[7\]\[2\]
*437 registers\[7\]\[3\]
*438 registers\[7\]\[4\]
*439 registers\[7\]\[5\]
*440 registers\[7\]\[6\]
*441 registers\[7\]\[7\]
*442 ANTENNA_1
*443 FILLER_0_0_135
*444 FILLER_0_0_139
*445 FILLER_0_0_15
*446 FILLER_0_0_158
*447 FILLER_0_0_166
*448 FILLER_0_0_169
*449 FILLER_0_0_181
*450 FILLER_0_0_27
*451 FILLER_0_0_29
*452 FILLER_0_0_3
*453 FILLER_0_0_35
*454 FILLER_0_0_47
*455 FILLER_0_0_51
*456 FILLER_0_0_57
*457 FILLER_0_0_85
*458 FILLER_0_10_103
*459 FILLER_0_10_110
*460 FILLER_0_10_118
*461 FILLER_0_10_125
*462 FILLER_0_10_141
*463 FILLER_0_10_15
*464 FILLER_0_10_164
*465 FILLER_0_10_27
*466 FILLER_0_10_3
*467 FILLER_0_10_37
*468 FILLER_0_10_48
*469 FILLER_0_10_60
*470 FILLER_0_10_78
*471 FILLER_0_10_85
*472 FILLER_0_10_97
*473 FILLER_0_11_103
*474 FILLER_0_11_110
*475 FILLER_0_11_113
*476 FILLER_0_11_117
*477 FILLER_0_11_127
*478 FILLER_0_11_137
*479 FILLER_0_11_147
*480 FILLER_0_11_162
*481 FILLER_0_11_166
*482 FILLER_0_11_19
*483 FILLER_0_11_29
*484 FILLER_0_11_34
*485 FILLER_0_11_57
*486 FILLER_0_11_72
*487 FILLER_0_11_94
*488 FILLER_0_12_113
*489 FILLER_0_12_139
*490 FILLER_0_12_147
*491 FILLER_0_12_179
*492 FILLER_0_12_27
*493 FILLER_0_12_29
*494 FILLER_0_12_3
*495 FILLER_0_13_103
*496 FILLER_0_13_110
*497 FILLER_0_13_122
*498 FILLER_0_13_150
*499 FILLER_0_13_158
*500 FILLER_0_13_177
*501 FILLER_0_13_181
*502 FILLER_0_13_22
*503 FILLER_0_13_3
*504 FILLER_0_13_50
*505 FILLER_0_13_63
*506 FILLER_0_13_78
*507 FILLER_0_13_93
*508 FILLER_0_14_11
*509 FILLER_0_14_131
*510 FILLER_0_14_158
*511 FILLER_0_14_163
*512 FILLER_0_14_179
*513 FILLER_0_14_21
*514 FILLER_0_14_27
*515 FILLER_0_14_29
*516 FILLER_0_14_41
*517 FILLER_0_14_53
*518 FILLER_0_14_65
*519 FILLER_0_14_73
*520 FILLER_0_14_81
*521 FILLER_0_14_85
*522 FILLER_0_14_93
*523 FILLER_0_15_111
*524 FILLER_0_15_113
*525 FILLER_0_15_149
*526 FILLER_0_15_19
*527 FILLER_0_15_23
*528 FILLER_0_15_41
*529 FILLER_0_15_57
*530 FILLER_0_16_134
*531 FILLER_0_16_141
*532 FILLER_0_16_147
*533 FILLER_0_16_29
*534 FILLER_0_16_57
*535 FILLER_0_16_66
*536 FILLER_0_16_85
*537 FILLER_0_17_100
*538 FILLER_0_17_116
*539 FILLER_0_17_124
*540 FILLER_0_17_131
*541 FILLER_0_17_149
*542 FILLER_0_17_181
*543 FILLER_0_17_21
*544 FILLER_0_17_3
*545 FILLER_0_17_51
*546 FILLER_0_17_55
*547 FILLER_0_17_65
*548 FILLER_0_17_77
*549 FILLER_0_18_112
*550 FILLER_0_18_12
*551 FILLER_0_18_124
*552 FILLER_0_18_133
*553 FILLER_0_18_139
*554 FILLER_0_18_141
*555 FILLER_0_18_151
*556 FILLER_0_18_26
*557 FILLER_0_18_29
*558 FILLER_0_18_74
*559 FILLER_0_18_78
*560 FILLER_0_18_82
*561 FILLER_0_18_88
*562 FILLER_0_18_96
*563 FILLER_0_19_102
*564 FILLER_0_19_113
*565 FILLER_0_19_148
*566 FILLER_0_19_180
*567 FILLER_0_19_45
*568 FILLER_0_19_57
*569 FILLER_0_19_87
*570 FILLER_0_19_9
*571 FILLER_0_1_113
*572 FILLER_0_1_15
*573 FILLER_0_1_163
*574 FILLER_0_1_167
*575 FILLER_0_1_169
*576 FILLER_0_1_181
*577 FILLER_0_1_27
*578 FILLER_0_1_3
*579 FILLER_0_1_52
*580 FILLER_0_20_109
*581 FILLER_0_20_135
*582 FILLER_0_20_139
*583 FILLER_0_20_141
*584 FILLER_0_20_177
*585 FILLER_0_20_29
*586 FILLER_0_20_33
*587 FILLER_0_20_54
*588 FILLER_0_20_65
*589 FILLER_0_20_77
*590 FILLER_0_20_83
*591 FILLER_0_20_85
*592 FILLER_0_20_91
*593 FILLER_0_21_10
*594 FILLER_0_21_102
*595 FILLER_0_21_110
*596 FILLER_0_21_113
*597 FILLER_0_21_126
*598 FILLER_0_21_130
*599 FILLER_0_21_137
*600 FILLER_0_21_141
*601 FILLER_0_21_16
*602 FILLER_0_21_166
*603 FILLER_0_21_169
*604 FILLER_0_21_25
*605 FILLER_0_21_3
*606 FILLER_0_21_33
*607 FILLER_0_21_40
*608 FILLER_0_21_44
*609 FILLER_0_21_51
*610 FILLER_0_21_55
*611 FILLER_0_21_65
*612 FILLER_0_21_78
*613 FILLER_0_21_90
*614 FILLER_0_22_109
*615 FILLER_0_22_113
*616 FILLER_0_22_12
*617 FILLER_0_22_137
*618 FILLER_0_22_153
*619 FILLER_0_22_22
*620 FILLER_0_22_29
*621 FILLER_0_22_41
*622 FILLER_0_22_53
*623 FILLER_0_22_60
*624 FILLER_0_22_7
*625 FILLER_0_23_108
*626 FILLER_0_23_129
*627 FILLER_0_23_151
*628 FILLER_0_23_155
*629 FILLER_0_23_169
*630 FILLER_0_23_28
*631 FILLER_0_23_3
*632 FILLER_0_23_34
*633 FILLER_0_23_90
*634 FILLER_0_24_106
*635 FILLER_0_24_118
*636 FILLER_0_24_132
*637 FILLER_0_24_19
*638 FILLER_0_24_38
*639 FILLER_0_24_61
*640 FILLER_0_24_7
*641 FILLER_0_24_70
*642 FILLER_0_24_82
*643 FILLER_0_25_102
*644 FILLER_0_25_116
*645 FILLER_0_25_138
*646 FILLER_0_25_15
*647 FILLER_0_25_150
*648 FILLER_0_25_165
*649 FILLER_0_25_177
*650 FILLER_0_25_21
*651 FILLER_0_25_3
*652 FILLER_0_25_46
*653 FILLER_0_25_54
*654 FILLER_0_25_57
*655 FILLER_0_25_65
*656 FILLER_0_25_78
*657 FILLER_0_26_116
*658 FILLER_0_26_138
*659 FILLER_0_26_141
*660 FILLER_0_26_153
*661 FILLER_0_26_181
*662 FILLER_0_26_19
*663 FILLER_0_26_23
*664 FILLER_0_26_27
*665 FILLER_0_26_38
*666 FILLER_0_26_56
*667 FILLER_0_26_62
*668 FILLER_0_26_7
*669 FILLER_0_26_79
*670 FILLER_0_26_83
*671 FILLER_0_26_93
*672 FILLER_0_26_99
*673 FILLER_0_27_102
*674 FILLER_0_27_113
*675 FILLER_0_27_125
*676 FILLER_0_27_137
*677 FILLER_0_27_141
*678 FILLER_0_27_15
*679 FILLER_0_27_151
*680 FILLER_0_27_163
*681 FILLER_0_27_167
*682 FILLER_0_27_169
*683 FILLER_0_27_181
*684 FILLER_0_27_3
*685 FILLER_0_27_32
*686 FILLER_0_27_50
*687 FILLER_0_27_73
*688 FILLER_0_27_85
*689 FILLER_0_27_89
*690 FILLER_0_28_103
*691 FILLER_0_28_116
*692 FILLER_0_28_129
*693 FILLER_0_28_141
*694 FILLER_0_28_15
*695 FILLER_0_28_167
*696 FILLER_0_28_179
*697 FILLER_0_28_27
*698 FILLER_0_28_29
*699 FILLER_0_28_3
*700 FILLER_0_28_44
*701 FILLER_0_28_65
*702 FILLER_0_28_85
*703 FILLER_0_29_113
*704 FILLER_0_29_131
*705 FILLER_0_29_15
*706 FILLER_0_29_159
*707 FILLER_0_29_167
*708 FILLER_0_29_169
*709 FILLER_0_29_181
*710 FILLER_0_29_27
*711 FILLER_0_29_3
*712 FILLER_0_29_39
*713 FILLER_0_29_51
*714 FILLER_0_29_55
*715 FILLER_0_29_57
*716 FILLER_0_2_100
*717 FILLER_0_2_120
*718 FILLER_0_2_138
*719 FILLER_0_2_144
*720 FILLER_0_2_15
*721 FILLER_0_2_166
*722 FILLER_0_2_27
*723 FILLER_0_2_29
*724 FILLER_0_2_3
*725 FILLER_0_2_33
*726 FILLER_0_2_62
*727 FILLER_0_2_72
*728 FILLER_0_30_107
*729 FILLER_0_30_121
*730 FILLER_0_30_139
*731 FILLER_0_30_141
*732 FILLER_0_30_15
*733 FILLER_0_30_153
*734 FILLER_0_30_165
*735 FILLER_0_30_169
*736 FILLER_0_30_181
*737 FILLER_0_30_27
*738 FILLER_0_30_29
*739 FILLER_0_30_3
*740 FILLER_0_30_41
*741 FILLER_0_30_53
*742 FILLER_0_30_57
*743 FILLER_0_30_66
*744 FILLER_0_3_110
*745 FILLER_0_3_113
*746 FILLER_0_3_148
*747 FILLER_0_3_15
*748 FILLER_0_3_152
*749 FILLER_0_3_159
*750 FILLER_0_3_169
*751 FILLER_0_3_180
*752 FILLER_0_3_27
*753 FILLER_0_3_3
*754 FILLER_0_3_39
*755 FILLER_0_3_53
*756 FILLER_0_3_74
*757 FILLER_0_3_84
*758 FILLER_0_3_96
*759 FILLER_0_4_109
*760 FILLER_0_4_141
*761 FILLER_0_4_15
*762 FILLER_0_4_160
*763 FILLER_0_4_177
*764 FILLER_0_4_19
*765 FILLER_0_4_23
*766 FILLER_0_4_27
*767 FILLER_0_4_29
*768 FILLER_0_4_3
*769 FILLER_0_4_46
*770 FILLER_0_4_70
*771 FILLER_0_4_79
*772 FILLER_0_4_83
*773 FILLER_0_4_85
*774 FILLER_0_5_109
*775 FILLER_0_5_116
*776 FILLER_0_5_124
*777 FILLER_0_5_15
*778 FILLER_0_5_164
*779 FILLER_0_5_181
*780 FILLER_0_5_3
*781 FILLER_0_5_78
*782 FILLER_0_6_101
*783 FILLER_0_6_116
*784 FILLER_0_6_120
*785 FILLER_0_6_136
*786 FILLER_0_6_15
*787 FILLER_0_6_156
*788 FILLER_0_6_170
*789 FILLER_0_6_23
*790 FILLER_0_6_3
*791 FILLER_0_6_46
*792 FILLER_0_6_66
*793 FILLER_0_6_93
*794 FILLER_0_7_100
*795 FILLER_0_7_113
*796 FILLER_0_7_147
*797 FILLER_0_7_18
*798 FILLER_0_7_3
*799 FILLER_0_7_38
*800 FILLER_0_7_78
*801 FILLER_0_7_84
*802 FILLER_0_7_88
*803 FILLER_0_8_118
*804 FILLER_0_8_154
*805 FILLER_0_8_164
*806 FILLER_0_8_26
*807 FILLER_0_8_29
*808 FILLER_0_8_3
*809 FILLER_0_8_49
*810 FILLER_0_8_85
*811 FILLER_0_8_9
*812 FILLER_0_9_121
*813 FILLER_0_9_15
*814 FILLER_0_9_151
*815 FILLER_0_9_169
*816 FILLER_0_9_3
*817 FILLER_0_9_57
*818 PHY_EDGE_ROW_0_Left_31
*819 PHY_EDGE_ROW_0_Right_0
*820 PHY_EDGE_ROW_10_Left_41
*821 PHY_EDGE_ROW_10_Right_10
*822 PHY_EDGE_ROW_11_Left_42
*823 PHY_EDGE_ROW_11_Right_11
*824 PHY_EDGE_ROW_12_Left_43
*825 PHY_EDGE_ROW_12_Right_12
*826 PHY_EDGE_ROW_13_Left_44
*827 PHY_EDGE_ROW_13_Right_13
*828 PHY_EDGE_ROW_14_Left_45
*829 PHY_EDGE_ROW_14_Right_14
*830 PHY_EDGE_ROW_15_Left_46
*831 PHY_EDGE_ROW_15_Right_15
*832 PHY_EDGE_ROW_16_Left_47
*833 PHY_EDGE_ROW_16_Right_16
*834 PHY_EDGE_ROW_17_Left_48
*835 PHY_EDGE_ROW_17_Right_17
*836 PHY_EDGE_ROW_18_Left_49
*837 PHY_EDGE_ROW_18_Right_18
*838 PHY_EDGE_ROW_19_Left_50
*839 PHY_EDGE_ROW_19_Right_19
*840 PHY_EDGE_ROW_1_Left_32
*841 PHY_EDGE_ROW_1_Right_1
*842 PHY_EDGE_ROW_20_Left_51
*843 PHY_EDGE_ROW_20_Right_20
*844 PHY_EDGE_ROW_21_Left_52
*845 PHY_EDGE_ROW_21_Right_21
*846 PHY_EDGE_ROW_22_Left_53
*847 PHY_EDGE_ROW_22_Right_22
*848 PHY_EDGE_ROW_23_Left_54
*849 PHY_EDGE_ROW_23_Right_23
*850 PHY_EDGE_ROW_24_Left_55
*851 PHY_EDGE_ROW_24_Right_24
*852 PHY_EDGE_ROW_25_Left_56
*853 PHY_EDGE_ROW_25_Right_25
*854 PHY_EDGE_ROW_26_Left_57
*855 PHY_EDGE_ROW_26_Right_26
*856 PHY_EDGE_ROW_27_Left_58
*857 PHY_EDGE_ROW_27_Right_27
*858 PHY_EDGE_ROW_28_Left_59
*859 PHY_EDGE_ROW_28_Right_28
*860 PHY_EDGE_ROW_29_Left_60
*861 PHY_EDGE_ROW_29_Right_29
*862 PHY_EDGE_ROW_2_Left_33
*863 PHY_EDGE_ROW_2_Right_2
*864 PHY_EDGE_ROW_30_Left_61
*865 PHY_EDGE_ROW_30_Right_30
*866 PHY_EDGE_ROW_3_Left_34
*867 PHY_EDGE_ROW_3_Right_3
*868 PHY_EDGE_ROW_4_Left_35
*869 PHY_EDGE_ROW_4_Right_4
*870 PHY_EDGE_ROW_5_Left_36
*871 PHY_EDGE_ROW_5_Right_5
*872 PHY_EDGE_ROW_6_Left_37
*873 PHY_EDGE_ROW_6_Right_6
*874 PHY_EDGE_ROW_7_Left_38
*875 PHY_EDGE_ROW_7_Right_7
*876 PHY_EDGE_ROW_8_Left_39
*877 PHY_EDGE_ROW_8_Right_8
*878 PHY_EDGE_ROW_9_Left_40
*879 PHY_EDGE_ROW_9_Right_9
*880 TAP_TAPCELL_ROW_0_62
*881 TAP_TAPCELL_ROW_0_63
*882 TAP_TAPCELL_ROW_0_64
*883 TAP_TAPCELL_ROW_0_65
*884 TAP_TAPCELL_ROW_0_66
*885 TAP_TAPCELL_ROW_0_67
*886 TAP_TAPCELL_ROW_10_95
*887 TAP_TAPCELL_ROW_10_96
*888 TAP_TAPCELL_ROW_10_97
*889 TAP_TAPCELL_ROW_11_100
*890 TAP_TAPCELL_ROW_11_98
*891 TAP_TAPCELL_ROW_11_99
*892 TAP_TAPCELL_ROW_12_101
*893 TAP_TAPCELL_ROW_12_102
*894 TAP_TAPCELL_ROW_12_103
*895 TAP_TAPCELL_ROW_13_104
*896 TAP_TAPCELL_ROW_13_105
*897 TAP_TAPCELL_ROW_13_106
*898 TAP_TAPCELL_ROW_14_107
*899 TAP_TAPCELL_ROW_14_108
*900 TAP_TAPCELL_ROW_14_109
*901 TAP_TAPCELL_ROW_15_110
*902 TAP_TAPCELL_ROW_15_111
*903 TAP_TAPCELL_ROW_15_112
*904 TAP_TAPCELL_ROW_16_113
*905 TAP_TAPCELL_ROW_16_114
*906 TAP_TAPCELL_ROW_16_115
*907 TAP_TAPCELL_ROW_17_116
*908 TAP_TAPCELL_ROW_17_117
*909 TAP_TAPCELL_ROW_17_118
*910 TAP_TAPCELL_ROW_18_119
*911 TAP_TAPCELL_ROW_18_120
*912 TAP_TAPCELL_ROW_18_121
*913 TAP_TAPCELL_ROW_19_122
*914 TAP_TAPCELL_ROW_19_123
*915 TAP_TAPCELL_ROW_19_124
*916 TAP_TAPCELL_ROW_1_68
*917 TAP_TAPCELL_ROW_1_69
*918 TAP_TAPCELL_ROW_1_70
*919 TAP_TAPCELL_ROW_20_125
*920 TAP_TAPCELL_ROW_20_126
*921 TAP_TAPCELL_ROW_20_127
*922 TAP_TAPCELL_ROW_21_128
*923 TAP_TAPCELL_ROW_21_129
*924 TAP_TAPCELL_ROW_21_130
*925 TAP_TAPCELL_ROW_22_131
*926 TAP_TAPCELL_ROW_22_132
*927 TAP_TAPCELL_ROW_22_133
*928 TAP_TAPCELL_ROW_23_134
*929 TAP_TAPCELL_ROW_23_135
*930 TAP_TAPCELL_ROW_23_136
*931 TAP_TAPCELL_ROW_24_137
*932 TAP_TAPCELL_ROW_24_138
*933 TAP_TAPCELL_ROW_24_139
*934 TAP_TAPCELL_ROW_25_140
*935 TAP_TAPCELL_ROW_25_141
*936 TAP_TAPCELL_ROW_25_142
*937 TAP_TAPCELL_ROW_26_143
*938 TAP_TAPCELL_ROW_26_144
*939 TAP_TAPCELL_ROW_26_145
*940 TAP_TAPCELL_ROW_27_146
*941 TAP_TAPCELL_ROW_27_147
*942 TAP_TAPCELL_ROW_27_148
*943 TAP_TAPCELL_ROW_28_149
*944 TAP_TAPCELL_ROW_28_150
*945 TAP_TAPCELL_ROW_28_151
*946 TAP_TAPCELL_ROW_29_152
*947 TAP_TAPCELL_ROW_29_153
*948 TAP_TAPCELL_ROW_29_154
*949 TAP_TAPCELL_ROW_2_71
*950 TAP_TAPCELL_ROW_2_72
*951 TAP_TAPCELL_ROW_2_73
*952 TAP_TAPCELL_ROW_30_155
*953 TAP_TAPCELL_ROW_30_156
*954 TAP_TAPCELL_ROW_30_157
*955 TAP_TAPCELL_ROW_30_158
*956 TAP_TAPCELL_ROW_30_159
*957 TAP_TAPCELL_ROW_30_160
*958 TAP_TAPCELL_ROW_3_74
*959 TAP_TAPCELL_ROW_3_75
*960 TAP_TAPCELL_ROW_3_76
*961 TAP_TAPCELL_ROW_4_77
*962 TAP_TAPCELL_ROW_4_78
*963 TAP_TAPCELL_ROW_4_79
*964 TAP_TAPCELL_ROW_5_80
*965 TAP_TAPCELL_ROW_5_81
*966 TAP_TAPCELL_ROW_5_82
*967 TAP_TAPCELL_ROW_6_83
*968 TAP_TAPCELL_ROW_6_84
*969 TAP_TAPCELL_ROW_6_85
*970 TAP_TAPCELL_ROW_7_86
*971 TAP_TAPCELL_ROW_7_87
*972 TAP_TAPCELL_ROW_7_88
*973 TAP_TAPCELL_ROW_8_89
*974 TAP_TAPCELL_ROW_8_90
*975 TAP_TAPCELL_ROW_8_91
*976 TAP_TAPCELL_ROW_9_92
*977 TAP_TAPCELL_ROW_9_93
*978 TAP_TAPCELL_ROW_9_94
*979 _233_
*980 _234_
*981 _235_
*982 _236_
*983 _237_
*984 _238_
*985 _239_
*986 _240_
*987 _241_
*988 _242_
*989 _243_
*990 _244_
*991 _245_
*992 _246_
*993 _247_
*994 _248_
*995 _249_
*996 _250_
*997 _251_
*998 _252_
*999 _253_
*1000 _254_
*1001 _255_
*1002 _256_
*1003 _257_
*1004 _258_
*1005 _259_
*1006 _260_
*1007 _261_
*1008 _262_
*1009 _263_
*1010 _264_
*1011 _265_
*1012 _266_
*1013 _267_
*1014 _268_
*1015 _269_
*1016 _270_
*1017 _271_
*1018 _272_
*1019 _273_
*1020 _274_
*1021 _275_
*1022 _276_
*1023 _277_
*1024 _278_
*1025 _279_
*1026 _280_
*1027 _281_
*1028 _282_
*1029 _283_
*1030 _284_
*1031 _285_
*1032 _286_
*1033 _287_
*1034 _288_
*1035 _289_
*1036 _290_
*1037 _291_
*1038 _292_
*1039 _293_
*1040 _294_
*1041 _295_
*1042 _296_
*1043 _297_
*1044 _298_
*1045 _299_
*1046 _300_
*1047 _301_
*1048 _302_
*1049 _303_
*1050 _304_
*1051 _305_
*1052 _306_
*1053 _307_
*1054 _308_
*1055 _309_
*1056 _310_
*1057 _311_
*1058 _312_
*1059 _313_
*1060 _314_
*1061 _315_
*1062 _316_
*1063 _317_
*1064 _318_
*1065 _319_
*1066 _320_
*1067 _321_
*1068 _322_
*1069 _323_
*1070 _324_
*1071 _325_
*1072 _326_
*1073 _327_
*1074 _328_
*1075 _329_
*1076 _330_
*1077 _331_
*1078 _332_
*1079 _333_
*1080 _334_
*1081 _335_
*1082 _336_
*1083 _337_
*1084 _338_
*1085 _339_
*1086 _340_
*1087 _341_
*1088 _342_
*1089 _343_
*1090 _344_
*1091 _345_
*1092 _346_
*1093 _347_
*1094 _348_
*1095 _349_
*1096 _350_
*1097 _351_
*1098 _352_
*1099 _353_
*1100 _354_
*1101 _355_
*1102 _356_
*1103 _357_
*1104 _358_
*1105 _359_
*1106 _360_
*1107 _361_
*1108 _362_
*1109 _363_
*1110 _364_
*1111 _365_
*1112 _366_
*1113 _367_
*1114 _368_
*1115 _369_
*1116 _370_
*1117 _371_
*1118 _372_
*1119 _373_
*1120 _374_
*1121 _375_
*1122 _376_
*1123 _377_
*1124 _378_
*1125 _379_
*1126 _380_
*1127 _381_
*1128 _382_
*1129 _383_
*1130 _384_
*1131 _385_
*1132 _386_
*1133 _387_
*1134 _388_
*1135 _389_
*1136 _390_
*1137 _391_
*1138 _392_
*1139 _393_
*1140 _394_
*1141 _395_
*1142 _396_
*1143 _397_
*1144 _398_
*1145 _399_
*1146 _400_
*1147 _401_
*1148 _402_
*1149 _403_
*1150 _404_
*1151 _405_
*1152 _406_
*1153 _407_
*1154 _408_
*1155 _409_
*1156 _410_
*1157 _411_
*1158 _412_
*1159 _413_
*1160 _414_
*1161 _415_
*1162 _416_
*1163 _417_
*1164 _418_
*1165 _419_
*1166 _420_
*1167 _421_
*1168 _422_
*1169 _423_
*1170 _424_
*1171 _425_
*1172 _426_
*1173 _427_
*1174 _428_
*1175 _429_
*1176 _430_
*1177 _431_
*1178 _432_
*1179 _433_
*1180 _434_
*1181 _435_
*1182 _436_
*1183 _437_
*1184 _438_
*1185 _439_
*1186 _440_
*1187 _441_
*1188 _442_
*1189 _443_
*1190 _444_
*1191 _445_
*1192 _446_
*1193 _447_
*1194 _448_
*1195 _449_
*1196 _450_
*1197 _451_
*1198 _452_
*1199 _453_
*1200 _454_
*1201 _455_
*1202 _456_
*1203 _457_
*1204 _458_
*1205 _459_
*1206 _460_
*1207 _461_
*1208 _462_
*1209 _463_
*1210 _464_
*1211 _465_
*1212 _466_
*1213 _467_
*1214 _468_
*1215 _469_
*1216 _470_
*1217 _471_
*1218 _472_
*1219 _473_
*1220 _474_
*1221 _475_
*1222 _476_
*1223 _477_
*1224 _478_
*1225 _479_
*1226 _480_
*1227 _481_
*1228 _482_
*1229 _483_
*1230 _484_
*1231 _485_
*1232 _486_
*1233 _487_
*1234 _488_
*1235 _489_
*1236 _490_
*1237 _491_
*1238 _492_
*1239 _493_
*1240 _494_
*1241 _495_
*1242 _496_
*1243 _497_
*1244 _498_
*1245 _499_
*1246 _500_
*1247 _501_
*1248 _502_
*1249 _503_
*1250 _504_
*1251 _505_
*1252 _506_
*1253 _507_
*1254 _508_
*1255 _509_
*1256 _510_
*1257 _511_
*1258 _512_
*1259 _513_
*1260 _514_
*1261 _515_
*1262 _516_
*1263 _517_
*1264 _518_
*1265 _519_
*1266 _520_
*1267 _521_
*1268 _522_
*1269 _523_
*1270 _524_
*1271 _525_
*1272 _526_
*1273 _527_
*1274 _528_
*1275 _529_
*1276 _530_
*1277 _531_
*1278 _532_
*1279 _533_
*1280 _534_
*1281 _535_
*1282 _536_
*1283 _537_
*1284 _538_
*1285 _539_
*1286 _540_
*1287 _541_
*1288 _542_
*1289 _543_
*1290 _544_
*1291 _545_
*1292 clkbuf_0_clk
*1293 clkbuf_3_0__f_clk
*1294 clkbuf_3_1__f_clk
*1295 clkbuf_3_2__f_clk
*1296 clkbuf_3_3__f_clk
*1297 clkbuf_3_4__f_clk
*1298 clkbuf_3_5__f_clk
*1299 clkbuf_3_6__f_clk
*1300 clkbuf_3_7__f_clk
*1301 clkload0
*1302 clkload1
*1303 clkload2
*1304 clkload3
*1305 clkload4
*1306 clkload5
*1307 clkload6
*1308 hold1
*1309 hold10
*1310 hold11
*1311 hold12
*1312 hold13
*1313 hold14
*1314 hold15
*1315 hold16
*1316 hold17
*1317 hold18
*1318 hold19
*1319 hold2
*1320 hold20
*1321 hold21
*1322 hold22
*1323 hold23
*1324 hold24
*1325 hold25
*1326 hold26
*1327 hold27
*1328 hold28
*1329 hold29
*1330 hold3
*1331 hold30
*1332 hold31
*1333 hold32
*1334 hold33
*1335 hold34
*1336 hold35
*1337 hold36
*1338 hold37
*1339 hold38
*1340 hold39
*1341 hold4
*1342 hold40
*1343 hold41
*1344 hold42
*1345 hold43
*1346 hold44
*1347 hold45
*1348 hold46
*1349 hold47
*1350 hold48
*1351 hold49
*1352 hold5
*1353 hold50
*1354 hold51
*1355 hold52
*1356 hold53
*1357 hold54
*1358 hold55
*1359 hold56
*1360 hold57
*1361 hold58
*1362 hold59
*1363 hold6
*1364 hold60
*1365 hold61
*1366 hold62
*1367 hold63
*1368 hold64
*1369 hold7
*1370 hold8
*1371 hold9
*1372 input1
*1373 input10
*1374 input11
*1375 input12
*1376 input13
*1377 input14
*1378 input15
*1379 input16
*1380 input17
*1381 input18
*1382 input2
*1383 input3
*1384 input4
*1385 input5
*1386 input6
*1387 input7
*1388 input8
*1389 input9
*1390 output19
*1391 output20
*1392 output21
*1393 output22
*1394 output23
*1395 output24
*1396 output25
*1397 output26
*1398 output27
*1399 output28
*1400 output29
*1401 output30
*1402 output31
*1403 output32
*1404 output33
*1405 output34

*PORTS
clk I
readData1[0] O
readData1[1] O
readData1[2] O
readData1[3] O
readData1[4] O
readData1[5] O
readData1[6] O
readData1[7] O
readData2[0] O
readData2[1] O
readData2[2] O
readData2[3] O
readData2[4] O
readData2[5] O
readData2[6] O
readData2[7] O
readReg1[0] I
readReg1[1] I
readReg1[2] I
readReg2[0] I
readReg2[1] I
readReg2[2] I
regWrite I
writeData[0] I
writeData[1] I
writeData[2] I
writeData[3] I
writeData[4] I
writeData[5] I
writeData[6] I
writeData[7] I
writeReg[0] I
writeReg[1] I
writeReg[2] I

*D_NET *3 0.012015
*CONN
*P clk I
*I *1292:A I *D sky130_fd_sc_hd__clkbuf_16
*CAP
1 clk 0.00600246
2 *1292:A 0.00600246
3 *1292:A *1109:S 0
4 *1292:A *1184:A 1.00941e-05
5 *1292:A *1388:A 0
*RES
1 clk *1292:A 15.5292 
*END

*D_NET *4 0.00057867
*CONN
*P readData1[0] O
*I *1390:X O *D sky130_fd_sc_hd__buf_2
*CAP
1 readData1[0] 0.000275081
2 *1390:X 0.000275081
3 readData1[0] readData2[0] 2.85068e-05
4 readData1[0] *1388:A 0
*RES
1 *1390:X readData1[0] 5.92503 
*END

*D_NET *5 0.000761854
*CONN
*P readData1[1] O
*I *1391:X O *D sky130_fd_sc_hd__buf_2
*CAP
1 readData1[1] 0.00032766
2 *1391:X 0.00032766
3 readData1[1] readData2[1] 6.59989e-05
4 readData1[1] *1389:A 0
5 readData1[1] *1391:A 4.05358e-05
6 readData1[1] *368:21 0
*RES
1 *1391:X readData1[1] 6.1581 
*END

*D_NET *6 0.000962223
*CONN
*P readData1[2] O
*I *1392:X O *D sky130_fd_sc_hd__buf_2
*CAP
1 readData1[2] 0.000452335
2 *1392:X 0.000452335
3 readData1[2] readData2[2] 0
4 readData1[2] *1392:A 7.00889e-06
5 readData1[2] *1400:A 5.05437e-05
*RES
1 *1392:X readData1[2] 10.875 
*END

*D_NET *7 0.00122352
*CONN
*P readData1[3] O
*I *1393:X O *D sky130_fd_sc_hd__clkbuf_4
*CAP
1 readData1[3] 0.000563558
2 *1393:X 0.000563558
3 readData1[3] readData2[3] 0
4 readData1[3] *1328:A 0
5 readData1[3] *1335:A 0
6 readData1[3] *1374:A 0
7 readData1[3] *1401:A 9.54399e-05
8 readData1[3] *421:12 0
9 readData1[3] *437:25 9.60582e-07
*RES
1 *1393:X readData1[3] 13.245 
*END

*D_NET *8 0.000563097
*CONN
*P readData1[4] O
*I *1394:X O *D sky130_fd_sc_hd__buf_2
*CAP
1 readData1[4] 0.0002307
2 *1394:X 0.0002307
3 readData1[4] readData2[4] 0.000101697
*RES
1 *1394:X readData1[4] 5.4733 
*END

*D_NET *9 0.000897371
*CONN
*P readData1[5] O
*I *1395:X O *D sky130_fd_sc_hd__clkbuf_4
*CAP
1 readData1[5] 0.000448686
2 *1395:X 0.000448686
*RES
1 *1395:X readData1[5] 11.55 
*END

*D_NET *10 0.000912279
*CONN
*P readData1[6] O
*I *1396:X O *D sky130_fd_sc_hd__buf_2
*CAP
1 readData1[6] 0.000293333
2 *1396:X 0.000293333
3 readData1[6] readData2[6] 0.000146721
4 readData1[6] *1355:A 9.22699e-05
5 readData1[6] *1372:A 8.66221e-05
*RES
1 *1396:X readData1[6] 7.5133 
*END

*D_NET *11 0.00174816
*CONN
*P readData1[7] O
*I *1397:X O *D sky130_fd_sc_hd__buf_2
*CAP
1 readData1[7] 0.000713019
2 *1397:X 0.000713019
3 readData1[7] readData2[7] 2.913e-05
4 readData1[7] *1378:A 7.10411e-05
5 readData1[7] *1397:A 2.49909e-05
6 readData1[7] *1405:A 7.33728e-05
7 readData1[7] *287:26 0.000123589
8 readData1[7] *288:10 0
*RES
1 *1397:X readData1[7] 15.69 
*END

*D_NET *12 0.000613927
*CONN
*P readData2[0] O
*I *1398:X O *D sky130_fd_sc_hd__buf_2
*CAP
1 readData2[0] 0.00029271
2 *1398:X 0.00029271
3 readData2[0] *1383:A 0
4 readData1[0] readData2[0] 2.85068e-05
*RES
1 *1398:X readData2[0] 7.1793 
*END

*D_NET *13 0.000543165
*CONN
*P readData2[1] O
*I *1399:X O *D sky130_fd_sc_hd__buf_2
*CAP
1 readData2[1] 0.000206815
2 *1399:X 0.000206815
3 readData2[1] *1389:A 6.35352e-05
4 readData1[1] readData2[1] 6.59989e-05
*RES
1 *1399:X readData2[1] 5.87023 
*END

*D_NET *14 0.000944436
*CONN
*P readData2[2] O
*I *1400:X O *D sky130_fd_sc_hd__buf_2
*CAP
1 readData2[2] 0.000461664
2 *1400:X 0.000461664
3 readData2[2] *1334:A 2.11084e-05
4 readData1[2] readData2[2] 0
*RES
1 *1400:X readData2[2] 10.875 
*END

*D_NET *15 0.000982159
*CONN
*P readData2[3] O
*I *1401:X O *D sky130_fd_sc_hd__clkbuf_4
*CAP
1 readData2[3] 0.000485247
2 *1401:X 0.000485247
3 readData2[3] *1130:A0 1.16646e-05
4 readData1[3] readData2[3] 0
*RES
1 *1401:X readData2[3] 11.55 
*END

*D_NET *16 0.000643222
*CONN
*P readData2[4] O
*I *1402:X O *D sky130_fd_sc_hd__buf_2
*CAP
1 readData2[4] 0.00018871
2 *1402:X 0.00018871
3 readData2[4] readData2[5] 0.000103415
4 readData2[4] *1402:A 6.06899e-05
5 readData1[4] readData2[4] 0.000101697
*RES
1 *1402:X readData2[4] 5.9833 
*END

*D_NET *17 0.00129302
*CONN
*P readData2[5] O
*I *1403:X O *D sky130_fd_sc_hd__buf_2
*CAP
1 readData2[5] 0.000585437
2 *1403:X 0.000585437
3 readData2[5] *1167:A0 1.87328e-05
4 readData2[5] *1375:A 0
5 readData2[5] *1402:A 0
6 readData2[4] readData2[5] 0.000103415
*RES
1 *1403:X readData2[5] 6.44943 
*END

*D_NET *18 0.000695591
*CONN
*P readData2[6] O
*I *1404:X O *D sky130_fd_sc_hd__buf_2
*CAP
1 readData2[6] 0.000244329
2 *1404:X 0.000244329
3 readData2[6] *1355:A 6.02118e-05
4 readData2[6] *1377:A 0
5 readData1[6] readData2[6] 0.000146721
*RES
1 *1404:X readData2[6] 5.53157 
*END

*D_NET *19 0.00212947
*CONN
*P readData2[7] O
*I *1405:X O *D sky130_fd_sc_hd__buf_2
*CAP
1 readData2[7] 0.000806575
2 *1405:X 0.000806575
3 readData2[7] *1378:A 0.000196771
4 readData2[7] *1379:A 0.000238505
5 readData2[7] *1380:A 0
6 readData2[7] *287:26 5.19106e-05
7 readData1[7] readData2[7] 2.913e-05
*RES
1 *1405:X readData2[7] 15.705 
*END

*D_NET *20 0.000659505
*CONN
*P readReg1[0] I
*I *1372:A I *D sky130_fd_sc_hd__dlymetal6s2s_1
*CAP
1 readReg1[0] 0.000208288
2 *1372:A 0.000208288
3 *1372:A *1355:A 6.376e-05
4 *1372:A *1384:A 9.25475e-05
5 readData1[6] *1372:A 8.66221e-05
*RES
1 readReg1[0] *1372:A 6.43503 
*END

*D_NET *21 0.000522421
*CONN
*P readReg1[1] I
*I *1382:A I *D sky130_fd_sc_hd__dlymetal6s2s_1
*CAP
1 readReg1[1] 0.000168663
2 *1382:A 0.000168663
3 *1382:A *1384:A 9.25475e-05
4 *1382:A *24:11 9.25475e-05
*RES
1 readReg1[1] *1382:A 5.41503 
*END

*D_NET *22 0.000556724
*CONN
*P readReg1[2] I
*I *1383:A I *D sky130_fd_sc_hd__clkbuf_4
*CAP
1 readReg1[2] 0.000247847
2 *1383:A 0.000247847
3 *1383:A *1386:A 4.31127e-05
4 *1383:A *274:60 1.79174e-05
5 *1383:A *274:82 0
6 readData2[0] *1383:A 0
*RES
1 readReg1[2] *1383:A 6.6987 
*END

*D_NET *23 0.000723466
*CONN
*P readReg2[0] I
*I *1384:A I *D sky130_fd_sc_hd__dlymetal6s2s_1
*CAP
1 readReg2[0] 0.000245673
2 *1384:A 0.000245673
3 *1384:A *1355:A 4.70256e-05
4 *1372:A *1384:A 9.25475e-05