* NGSPICE file created from alu.ext - technology: sky130A

* Black-box entry subcircuit for sky130_fd_sc_hd__decap_6 abstract view
.subckt sky130_fd_sc_hd__decap_6 VGND VNB VPB VPWR
.ends

* Black-box entry subcircuit for sky130_fd_sc_hd__tapvpwrvgnd_1 abstract view
.subckt sky130_fd_sc_hd__tapvpwrvgnd_1 VGND VPWR
.ends

* Black-box entry subcircuit for sky130_fd_sc_hd__decap_3 abstract view
.subckt sky130_fd_sc_hd__decap_3 VGND VNB VPB VPWR
.ends

* Black-box entry subcircuit for sky130_ef_sc_hd__decap_12 abstract view
.subckt sky130_ef_sc_hd__decap_12 VPWR VGND VPB VNB
.ends

* Black-box entry subcircuit for sky130_fd_sc_hd__a21oi_1 abstract view
.subckt sky130_fd_sc_hd__a21oi_1 A1 A2 B1 VGND VNB VPB VPWR Y
.ends

* Black-box entry subcircuit for sky130_fd_sc_hd__a31o_1 abstract view
.subckt sky130_fd_sc_hd__a31o_1 A1 A2 A3 B1 VGND VNB VPB VPWR X
.ends

* Black-box entry subcircuit for sky130_fd_sc_hd__decap_4 abstract view
.subckt sky130_fd_sc_hd__decap_4 VGND VNB VPB VPWR
.ends

* Black-box entry subcircuit for sky130_fd_sc_hd__or3b_1 abstract view
.subckt sky130_fd_sc_hd__or3b_1 A B C_N VGND VNB VPB VPWR X
.ends

* Black-box entry subcircuit for sky130_fd_sc_hd__decap_8 abstract view
.subckt sky130_fd_sc_hd__decap_8 VGND VNB VPB VPWR
.ends

* Black-box entry subcircuit for sky130_fd_sc_hd__buf_2 abstract view
.subckt sky130_fd_sc_hd__buf_2 A VGND VNB VPB VPWR X
.ends

* Black-box entry subcircuit for sky130_fd_sc_hd__fill_2 abstract view
.subckt sky130_fd_sc_hd__fill_2 VGND VNB VPB VPWR
.ends

* Black-box entry subcircuit for sky130_fd_sc_hd__and2_2 abstract view
.subckt sky130_fd_sc_hd__and2_2 A B VGND VNB VPB VPWR X
.ends

* Black-box entry subcircuit for sky130_fd_sc_hd__fill_1 abstract view
.subckt sky130_fd_sc_hd__fill_1 VGND VNB VPB VPWR
.ends

* Black-box entry subcircuit for sky130_fd_sc_hd__nor2_1 abstract view
.subckt sky130_fd_sc_hd__nor2_1 A B VGND VNB VPB VPWR Y
.ends

* Black-box entry subcircuit for sky130_fd_sc_hd__nor2_2 abstract view
.subckt sky130_fd_sc_hd__nor2_2 A B VGND VNB VPB VPWR Y
.ends

* Black-box entry subcircuit for sky130_fd_sc_hd__xor2_1 abstract view
.subckt sky130_fd_sc_hd__xor2_1 A B VGND VNB VPB VPWR X
.ends

* Black-box entry subcircuit for sky130_fd_sc_hd__or2b_2 abstract view
.subckt sky130_fd_sc_hd__or2b_2 A B_N VGND VNB VPB VPWR X
.ends

* Black-box entry subcircuit for sky130_fd_sc_hd__nand2_1 abstract view
.subckt sky130_fd_sc_hd__nand2_1 A B VGND VNB VPB VPWR Y
.ends

* Black-box entry subcircuit for sky130_fd_sc_hd__or2b_1 abstract view
.subckt sky130_fd_sc_hd__or2b_1 A B_N VGND VNB VPB VPWR X
.ends

* Black-box entry subcircuit for sky130_fd_sc_hd__o21a_1 abstract view
.subckt sky130_fd_sc_hd__o21a_1 A1 A2 B1 VGND VNB VPB VPWR X
.ends

* Black-box entry subcircuit for sky130_fd_sc_hd__o21a_2 abstract view
.subckt sky130_fd_sc_hd__o21a_2 A1 A2 B1 VGND VNB VPB VPWR X
.ends

* Black-box entry subcircuit for sky130_fd_sc_hd__and2_1 abstract view
.subckt sky130_fd_sc_hd__and2_1 A B VGND VNB VPB VPWR X
.ends

* Black-box entry subcircuit for sky130_fd_sc_hd__a21o_1 abstract view
.subckt sky130_fd_sc_hd__a21o_1 A1 A2 B1 VGND VNB VPB VPWR X
.ends

* Black-box entry subcircuit for sky130_fd_sc_hd__a211o_1 abstract view
.subckt sky130_fd_sc_hd__a211o_1 A1 A2 B1 C1 VGND VNB VPB VPWR X
.ends

* Black-box entry subcircuit for sky130_fd_sc_hd__xnor2_2 abstract view
.subckt sky130_fd_sc_hd__xnor2_2 A B VGND VNB VPB VPWR Y
.ends

* Black-box entry subcircuit for sky130_fd_sc_hd__nand3b_2 abstract view
.subckt sky130_fd_sc_hd__nand3b_2 A_N B C VGND VNB VPB VPWR Y
.ends

* Black-box entry subcircuit for sky130_fd_sc_hd__o31a_2 abstract view
.subckt sky130_fd_sc_hd__o31a_2 A1 A2 A3 B1 VGND VNB VPB VPWR X
.ends

* Black-box entry subcircuit for sky130_fd_sc_hd__a21bo_1 abstract view
.subckt sky130_fd_sc_hd__a21bo_1 A1 A2 B1_N VGND VNB VPB VPWR X
.ends

* Black-box entry subcircuit for sky130_fd_sc_hd__or3_4 abstract view
.subckt sky130_fd_sc_hd__or3_4 A B C VGND VNB VPB VPWR X
.ends

* Black-box entry subcircuit for sky130_fd_sc_hd__xnor2_1 abstract view
.subckt sky130_fd_sc_hd__xnor2_1 A B VGND VNB VPB VPWR Y
.ends

* Black-box entry subcircuit for sky130_fd_sc_hd__o21ai_2 abstract view
.subckt sky130_fd_sc_hd__o21ai_2 A1 A2 B1 VGND VNB VPB VPWR Y
.ends

* Black-box entry subcircuit for sky130_fd_sc_hd__a311o_1 abstract view
.subckt sky130_fd_sc_hd__a311o_1 A1 A2 A3 B1 C1 VGND VNB VPB VPWR X
.ends

* Black-box entry subcircuit for sky130_fd_sc_hd__o21ai_1 abstract view
.subckt sky130_fd_sc_hd__o21ai_1 A1 A2 B1 VGND VNB VPB VPWR Y
.ends

* Black-box entry subcircuit for sky130_fd_sc_hd__buf_4 abstract view
.subckt sky130_fd_sc_hd__buf_4 A VGND VNB VPB VPWR X
.ends

* Black-box entry subcircuit for sky130_fd_sc_hd__clkbuf_4 abstract view
.subckt sky130_fd_sc_hd__clkbuf_4 A VGND VNB VPB VPWR X
.ends

* Black-box entry subcircuit for sky130_fd_sc_hd__o22a_1 abstract view
.subckt sky130_fd_sc_hd__o22a_1 A1 A2 B1 B2 VGND VNB VPB VPWR X
.ends

* Black-box entry subcircuit for sky130_fd_sc_hd__and2b_1 abstract view
.subckt sky130_fd_sc_hd__and2b_1 A_N B VGND VNB VPB VPWR X
.ends

* Black-box entry subcircuit for sky130_fd_sc_hd__or3_1 abstract view
.subckt sky130_fd_sc_hd__or3_1 A B C VGND VNB VPB VPWR X
.ends

* Black-box entry subcircuit for sky130_fd_sc_hd__or2_1 abstract view
.subckt sky130_fd_sc_hd__or2_1 A B VGND VNB VPB VPWR X
.ends

* Black-box entry subcircuit for sky130_fd_sc_hd__a21oi_2 abstract view
.subckt sky130_fd_sc_hd__a21oi_2 A1 A2 B1 VGND VNB VPB VPWR Y
.ends

* Black-box entry subcircuit for sky130_fd_sc_hd__or3_2 abstract view
.subckt sky130_fd_sc_hd__or3_2 A B C VGND VNB VPB VPWR X
.ends

* Black-box entry subcircuit for sky130_fd_sc_hd__clkbuf_2 abstract view
.subckt sky130_fd_sc_hd__clkbuf_2 A VGND VNB VPB VPWR X
.ends

* Black-box entry subcircuit for sky130_fd_sc_hd__o21bai_1 abstract view
.subckt sky130_fd_sc_hd__o21bai_1 A1 A2 B1_N VGND VNB VPB VPWR Y
.ends

* Black-box entry subcircuit for sky130_fd_sc_hd__and3_1 abstract view
.subckt sky130_fd_sc_hd__and3_1 A B C VGND VNB VPB VPWR X
.ends

* Black-box entry subcircuit for sky130_fd_sc_hd__xor2_2 abstract view
.subckt sky130_fd_sc_hd__xor2_2 A B VGND VNB VPB VPWR X
.ends

* Black-box entry subcircuit for sky130_fd_sc_hd__nand3b_4 abstract view
.subckt sky130_fd_sc_hd__nand3b_4 A_N B C VGND VNB VPB VPWR Y
.ends

* Black-box entry subcircuit for sky130_fd_sc_hd__o211a_1 abstract view
.subckt sky130_fd_sc_hd__o211a_1 A1 A2 B1 C1 VGND VNB VPB VPWR X
.ends

* Black-box entry subcircuit for sky130_fd_sc_hd__or4b_1 abstract view
.subckt sky130_fd_sc_hd__or4b_1 A B C D_N VGND VNB VPB VPWR X
.ends

* Black-box entry subcircuit for sky130_fd_sc_hd__a221o_1 abstract view
.subckt sky130_fd_sc_hd__a221o_1 A1 A2 B1 B2 C1 VGND VNB VPB VPWR X
.ends

* Black-box entry subcircuit for sky130_fd_sc_hd__o221a_1 abstract view
.subckt sky130_fd_sc_hd__o221a_1 A1 A2 B1 B2 C1 VGND VNB VPB VPWR X
.ends

* Black-box entry subcircuit for sky130_fd_sc_hd__dlymetal6s2s_1 abstract view
.subckt sky130_fd_sc_hd__dlymetal6s2s_1 A VGND VNB VPB VPWR X
.ends

* Black-box entry subcircuit for sky130_fd_sc_hd__a22o_1 abstract view
.subckt sky130_fd_sc_hd__a22o_1 A1 A2 B1 B2 VGND VNB VPB VPWR X
.ends

* Black-box entry subcircuit for sky130_fd_sc_hd__a2bb2o_1 abstract view
.subckt sky130_fd_sc_hd__a2bb2o_1 A1_N A2_N B1 B2 VGND VNB VPB VPWR X
.ends

* Black-box entry subcircuit for sky130_fd_sc_hd__xor2_4 abstract view
.subckt sky130_fd_sc_hd__xor2_4 A B VGND VNB VPB VPWR X
.ends

* Black-box entry subcircuit for sky130_fd_sc_hd__a21boi_1 abstract view
.subckt sky130_fd_sc_hd__a21boi_1 A1 A2 B1_N VGND VNB VPB VPWR Y
.ends

* Black-box entry subcircuit for sky130_fd_sc_hd__xnor2_4 abstract view
.subckt sky130_fd_sc_hd__xnor2_4 A B VGND VNB VPB VPWR Y
.ends

* Black-box entry subcircuit for sky130_fd_sc_hd__o22ai_2 abstract view
.subckt sky130_fd_sc_hd__o22ai_2 A1 A2 B1 B2 VGND VNB VPB VPWR Y
.ends

* Black-box entry subcircuit for sky130_fd_sc_hd__a21o_2 abstract view
.subckt sky130_fd_sc_hd__a21o_2 A1 A2 B1 VGND VNB VPB VPWR X
.ends

* Black-box entry subcircuit for sky130_fd_sc_hd__diode_2 abstract view
.subckt sky130_fd_sc_hd__diode_2 DIODE VGND VNB VPB VPWR
.ends

* Black-box entry subcircuit for sky130_fd_sc_hd__buf_1 abstract view
.subckt sky130_fd_sc_hd__buf_1 A VGND VNB VPB VPWR X
.ends

* Black-box entry subcircuit for sky130_fd_sc_hd__o2bb2a_1 abstract view
.subckt sky130_fd_sc_hd__o2bb2a_1 A1_N A2_N B1 B2 VGND VNB VPB VPWR X
.ends

* Black-box entry subcircuit for sky130_fd_sc_hd__nand2_2 abstract view
.subckt sky130_fd_sc_hd__nand2_2 A B VGND VNB VPB VPWR Y
.ends

* Black-box entry subcircuit for sky130_fd_sc_hd__inv_2 abstract view
.subckt sky130_fd_sc_hd__inv_2 A VGND VNB VPB VPWR Y
.ends

.subckt alu A[0] A[1] A[2] A[3] A[4] A[5] A[6] A[7] B[0] B[1] B[2] B[3] B[4] B[5]
+ B[6] B[7] VGND VPWR opcode[0] opcode[1] opcode[2] out[0] out[1] out[2] out[3] out[4]
+ out[5] out[6] out[7]
XFILLER_0_7_81 VGND VGND VPWR VPWR sky130_fd_sc_hd__decap_6
XTAP_TAPCELL_ROW_15_106 VGND VPWR sky130_fd_sc_hd__tapvpwrvgnd_1
XFILLER_0_3_17 VGND VGND VPWR VPWR sky130_fd_sc_hd__decap_3
XTAP_TAPCELL_ROW_20_120 VGND VPWR sky130_fd_sc_hd__tapvpwrvgnd_1
XFILLER_0_18_29 VPWR VGND VPWR VGND sky130_ef_sc_hd__decap_12
X_131_ net2 net10 _047_ VGND VGND VPWR VPWR _062_ sky130_fd_sc_hd__a21oi_1
X_200_ _091_ _094_ _006_ _019_ VGND VGND VPWR VPWR _020_ sky130_fd_sc_hd__a31o_1
XFILLER_0_0_29 VGND VGND VPWR VPWR sky130_fd_sc_hd__decap_6
XFILLER_0_9_38 VPWR VGND VPWR VGND sky130_ef_sc_hd__decap_12
XFILLER_0_10_41 VPWR VGND VPWR VGND sky130_ef_sc_hd__decap_12
XFILLER_0_10_85 VPWR VGND VPWR VGND sky130_ef_sc_hd__decap_12
XFILLER_0_19_169 VGND VGND VPWR VPWR sky130_fd_sc_hd__decap_4
XFILLER_0_19_125 VPWR VGND VPWR VGND sky130_ef_sc_hd__decap_12
XPHY_EDGE_ROW_8_Left_36 VGND VGND VPWR VPWR sky130_fd_sc_hd__decap_3
X_114_ net17 net19 net18 VGND VGND VPWR VPWR _046_ sky130_fd_sc_hd__or3b_1
XFILLER_0_24_161 VGND VGND VPWR VPWR sky130_fd_sc_hd__decap_8
XFILLER_0_21_51 VGND VGND VPWR VPWR sky130_fd_sc_hd__decap_4
XFILLER_0_16_117 VPWR VGND VPWR VGND sky130_ef_sc_hd__decap_12
XFILLER_0_26_29 VPWR VGND VPWR VGND sky130_ef_sc_hd__decap_12
XFILLER_0_22_109 VPWR VGND VPWR VGND sky130_ef_sc_hd__decap_12
XFILLER_0_20_9 VPWR VGND VPWR VGND sky130_ef_sc_hd__decap_12
XFILLER_0_8_103 VPWR VGND VPWR VGND sky130_ef_sc_hd__decap_12
Xoutput20 net20 VGND VGND VPWR VPWR out[0] sky130_fd_sc_hd__buf_2
XTAP_TAPCELL_ROW_18_115 VGND VPWR sky130_fd_sc_hd__tapvpwrvgnd_1
XPHY_EDGE_ROW_21_Left_49 VGND VGND VPWR VPWR sky130_fd_sc_hd__decap_3
XFILLER_0_13_85 VGND VGND VPWR VPWR sky130_fd_sc_hd__fill_2
XTAP_TAPCELL_ROW_20_121 VGND VPWR sky130_fd_sc_hd__tapvpwrvgnd_1
XPHY_EDGE_ROW_21_Right_21 VGND VGND VPWR VPWR sky130_fd_sc_hd__decap_3
XPHY_EDGE_ROW_12_Right_12 VGND VGND VPWR VPWR sky130_fd_sc_hd__decap_3
X_130_ net2 net10 _039_ _060_ VGND VGND VPWR VPWR _061_ sky130_fd_sc_hd__a31o_1
XFILLER_0_27_181 VGND VGND VPWR VPWR sky130_fd_sc_hd__decap_4
XPHY_EDGE_ROW_24_Left_52 VGND VGND VPWR VPWR sky130_fd_sc_hd__decap_3
XFILLER_0_19_137 VPWR VGND VPWR VGND sky130_ef_sc_hd__decap_12
XFILLER_0_10_53 VPWR VGND VPWR VGND sky130_ef_sc_hd__decap_12
XFILLER_0_10_97 VPWR VGND VPWR VGND sky130_ef_sc_hd__decap_12
X_113_ net19 _038_ VGND VGND VPWR VPWR _045_ sky130_fd_sc_hd__and2_2
XFILLER_0_21_63 VPWR VGND VPWR VGND sky130_ef_sc_hd__decap_12
XFILLER_0_16_41 VPWR VGND VPWR VGND sky130_ef_sc_hd__decap_12
XFILLER_0_6_29 VGND VGND VPWR VPWR sky130_fd_sc_hd__decap_6
XPHY_EDGE_ROW_6_Right_6 VGND VGND VPWR VPWR sky130_fd_sc_hd__decap_3
XFILLER_0_8_115 VGND VGND VPWR VPWR sky130_fd_sc_hd__decap_8
XFILLER_0_12_121 VPWR VGND VPWR VGND sky130_ef_sc_hd__decap_12
Xoutput21 net21 VGND VGND VPWR VPWR out[1] sky130_fd_sc_hd__buf_2
XFILLER_0_7_181 VGND VGND VPWR VPWR sky130_fd_sc_hd__fill_2
XTAP_TAPCELL_ROW_23_130 VGND VPWR sky130_fd_sc_hd__tapvpwrvgnd_1
XFILLER_0_2_9 VPWR VGND VPWR VGND sky130_ef_sc_hd__decap_12
XFILLER_0_19_105 VGND VGND VPWR VPWR sky130_fd_sc_hd__decap_6
XFILLER_0_19_41 VGND VGND VPWR VPWR sky130_fd_sc_hd__fill_1
X_189_ net14 net6 VGND VGND VPWR VPWR _010_ sky130_fd_sc_hd__nor2_1
XFILLER_0_10_65 VPWR VGND VPWR VGND sky130_ef_sc_hd__decap_12
X_112_ net18 _043_ VGND VGND VPWR VPWR _044_ sky130_fd_sc_hd__nor2_2
XFILLER_0_24_141 VGND VGND VPWR VPWR sky130_fd_sc_hd__decap_6
XFILLER_0_21_75 VPWR VGND VPWR VGND sky130_ef_sc_hd__decap_12
XFILLER_0_15_185 VGND VGND VPWR VPWR sky130_fd_sc_hd__fill_1
XFILLER_0_15_141 VGND VGND VPWR VPWR sky130_fd_sc_hd__fill_1
XFILLER_0_21_177 VGND VGND VPWR VPWR sky130_fd_sc_hd__decap_8
XFILLER_0_21_111 VGND VGND VPWR VPWR sky130_fd_sc_hd__fill_1
XFILLER_0_16_53 VPWR VGND VPWR VGND sky130_ef_sc_hd__decap_12
XFILLER_0_12_133 VGND VGND VPWR VPWR sky130_fd_sc_hd__decap_6
Xoutput22 net22 VGND VGND VPWR VPWR out[2] sky130_fd_sc_hd__buf_2
XFILLER_0_9_3 VGND VGND VPWR VPWR sky130_fd_sc_hd__fill_1
XFILLER_0_27_85 VPWR VGND VPWR VGND sky130_ef_sc_hd__decap_12
XFILLER_0_11_7 VPWR VGND VPWR VGND sky130_ef_sc_hd__decap_12
XFILLER_0_4_141 VGND VGND VPWR VPWR sky130_fd_sc_hd__decap_8
XFILLER_0_7_51 VGND VGND VPWR VPWR sky130_fd_sc_hd__decap_4
XFILLER_0_1_111 VGND VGND VPWR VPWR sky130_fd_sc_hd__fill_1
XFILLER_0_24_42 VPWR VGND VPWR VGND sky130_ef_sc_hd__decap_12
XFILLER_0_4_41 VGND VGND VPWR VPWR sky130_fd_sc_hd__decap_4
XFILLER_0_4_52 VGND VGND VPWR VPWR sky130_fd_sc_hd__decap_4
XFILLER_0_4_85 VPWR VGND VPWR VGND sky130_ef_sc_hd__decap_12
X_188_ _006_ _008_ VGND VGND VPWR VPWR _009_ sky130_fd_sc_hd__xor2_1
XFILLER_0_10_77 VGND VGND VPWR VPWR sky130_fd_sc_hd__decap_6
XFILLER_0_25_109 VGND VGND VPWR VPWR sky130_fd_sc_hd__decap_3
X_111_ net19 net17 VGND VGND VPWR VPWR _043_ sky130_fd_sc_hd__or2b_2
XFILLER_0_21_87 VPWR VGND VPWR VGND sky130_ef_sc_hd__decap_12
XFILLER_0_1_31 VPWR VGND VPWR VGND sky130_ef_sc_hd__decap_12
XTAP_TAPCELL_ROW_10_90 VGND VPWR sky130_fd_sc_hd__tapvpwrvgnd_1
XFILLER_0_16_65 VPWR VGND VPWR VGND sky130_ef_sc_hd__decap_12
XFILLER_0_12_178 VGND VGND VPWR VPWR sky130_fd_sc_hd__decap_3
Xoutput23 net23 VGND VGND VPWR VPWR out[3] sky130_fd_sc_hd__buf_2
XFILLER_0_27_97 VPWR VGND VPWR VGND sky130_ef_sc_hd__decap_12
XFILLER_0_27_42 VPWR VGND VPWR VGND sky130_ef_sc_hd__decap_12
XFILLER_0_7_41 VGND VGND VPWR VPWR sky130_fd_sc_hd__decap_3
XFILLER_0_13_55 VGND VGND VPWR VPWR sky130_fd_sc_hd__fill_1
XFILLER_0_13_33 VGND VGND VPWR VPWR sky130_fd_sc_hd__fill_1
XFILLER_0_13_77 VGND VGND VPWR VPWR sky130_fd_sc_hd__decap_8
XFILLER_0_1_189 VGND VGND VPWR VPWR sky130_fd_sc_hd__fill_1
XTAP_TAPCELL_ROW_3_70 VGND VPWR sky130_fd_sc_hd__tapvpwrvgnd_1
XFILLER_0_24_54 VPWR VGND VPWR VGND sky130_ef_sc_hd__decap_12
XFILLER_0_24_21 VGND VGND VPWR VPWR sky130_fd_sc_hd__decap_6
XFILLER_0_4_64 VPWR VGND VPWR VGND sky130_ef_sc_hd__decap_12
XFILLER_0_4_97 VGND VGND VPWR VPWR sky130_fd_sc_hd__decap_8
X_187_ _007_ _095_ VGND VGND VPWR VPWR _008_ sky130_fd_sc_hd__nand2_1
XFILLER_0_19_21 VPWR VGND VPWR VGND sky130_ef_sc_hd__decap_12
XTAP_TAPCELL_ROW_0_60 VGND VPWR sky130_fd_sc_hd__tapvpwrvgnd_1
X_110_ net1 _041_ VGND VGND VPWR VPWR _042_ sky130_fd_sc_hd__nor2_1
XFILLER_0_21_99 VPWR VGND VPWR VGND sky130_ef_sc_hd__decap_12
XFILLER_0_21_55 VGND VGND VPWR VPWR sky130_fd_sc_hd__fill_1
XFILLER_0_1_43 VPWR VGND VPWR VGND sky130_ef_sc_hd__decap_12
XTAP_TAPCELL_ROW_10_91 VGND VPWR sky130_fd_sc_hd__tapvpwrvgnd_1
XFILLER_0_21_113 VPWR VGND VPWR VGND sky130_ef_sc_hd__decap_12
XFILLER_0_16_77 VGND VGND VPWR VPWR sky130_fd_sc_hd__decap_6
Xoutput24 net24 VGND VGND VPWR VPWR out[4] sky130_fd_sc_hd__buf_2
XPHY_EDGE_ROW_19_Right_19 VGND VGND VPWR VPWR sky130_fd_sc_hd__decap_3
XFILLER_0_27_54 VGND VGND VPWR VPWR sky130_fd_sc_hd__fill_2
XPHY_EDGE_ROW_15_Left_43 VGND VGND VPWR VPWR sky130_fd_sc_hd__decap_3
XFILLER_0_4_110 VPWR VGND VPWR VGND sky130_ef_sc_hd__decap_12
XFILLER_0_4_187 VGND VGND VPWR VPWR sky130_fd_sc_hd__decap_3
XFILLER_0_1_113 VPWR VGND VPWR VGND sky130_ef_sc_hd__decap_12
XPHY_EDGE_ROW_0_Left_28 VGND VGND VPWR VPWR sky130_fd_sc_hd__decap_3
XFILLER_0_0_9 VGND VGND VPWR VPWR sky130_fd_sc_hd__fill_1
XFILLER_0_24_66 VPWR VGND VPWR VGND sky130_ef_sc_hd__decap_12
XFILLER_0_4_76 VGND VGND VPWR VPWR sky130_fd_sc_hd__decap_8
X_186_ _090_ net5 VGND VGND VPWR VPWR _007_ sky130_fd_sc_hd__or2b_1
XFILLER_0_27_185 VGND VGND VPWR VPWR sky130_fd_sc_hd__fill_1
XFILLER_0_27_141 VPWR VGND VPWR VGND sky130_ef_sc_hd__decap_12
XFILLER_0_19_33 VGND VGND VPWR VPWR sky130_fd_sc_hd__decap_8
XTAP_TAPCELL_ROW_0_61 VGND VPWR sky130_fd_sc_hd__tapvpwrvgnd_1
XFILLER_0_18_141 VPWR VGND VPWR VGND sky130_ef_sc_hd__decap_12
XFILLER_0_18_130 VGND VGND VPWR VPWR sky130_fd_sc_hd__decap_3
XPHY_EDGE_ROW_3_Left_31 VGND VGND VPWR VPWR sky130_fd_sc_hd__decap_3
XFILLER_0_27_7 VPWR VGND VPWR VGND sky130_ef_sc_hd__decap_12
X_169_ _091_ _094_ _096_ VGND VGND VPWR VPWR _097_ sky130_fd_sc_hd__o21a_1
XFILLER_0_1_55 VGND VGND VPWR VPWR sky130_fd_sc_hd__fill_1
XFILLER_0_15_100 VPWR VGND VPWR VGND sky130_ef_sc_hd__decap_12
XFILLER_0_21_169 VGND VGND VPWR VPWR sky130_fd_sc_hd__decap_4
XFILLER_0_21_125 VPWR VGND VPWR VGND sky130_ef_sc_hd__decap_12
XFILLER_0_18_3 VGND VGND VPWR VPWR sky130_fd_sc_hd__fill_1
Xoutput25 net25 VGND VGND VPWR VPWR out[5] sky130_fd_sc_hd__buf_2
XFILLER_0_4_122 VPWR VGND VPWR VGND sky130_ef_sc_hd__decap_12
XFILLER_0_4_155 VPWR VGND VPWR VGND sky130_ef_sc_hd__decap_12
XFILLER_0_7_21 VPWR VGND VPWR VGND sky130_ef_sc_hd__decap_12
XFILLER_0_7_87 VGND VGND VPWR VPWR sky130_fd_sc_hd__fill_1
XFILLER_0_13_57 VPWR VGND VPWR VGND sky130_ef_sc_hd__decap_12
XTAP_TAPCELL_ROW_14_101 VGND VPWR sky130_fd_sc_hd__tapvpwrvgnd_1
XFILLER_0_13_13 VPWR VGND VPWR VGND sky130_ef_sc_hd__decap_12
XFILLER_0_1_169 VPWR VGND VPWR VGND sky130_ef_sc_hd__decap_12
XFILLER_0_1_125 VPWR VGND VPWR VGND sky130_ef_sc_hd__decap_12
XFILLER_0_24_78 VGND VGND VPWR VPWR sky130_fd_sc_hd__decap_6
XFILLER_0_24_34 VGND VGND VPWR VPWR sky130_fd_sc_hd__fill_1
X_185_ _004_ _005_ VGND VGND VPWR VPWR _006_ sky130_fd_sc_hd__nor2_1
XFILLER_0_27_153 VPWR VGND VPWR VGND sky130_ef_sc_hd__decap_12
XFILLER_0_18_153 VGND VGND VPWR VPWR sky130_fd_sc_hd__fill_1
XFILLER_0_24_189 VGND VGND VPWR VPWR sky130_fd_sc_hd__fill_1
XFILLER_0_24_178 VGND VGND VPWR VPWR sky130_fd_sc_hd__decap_6
X_168_ net17 net18 _045_ VGND VGND VPWR VPWR _096_ sky130_fd_sc_hd__o21a_2
XFILLER_0_15_189 VGND VGND VPWR VPWR sky130_fd_sc_hd__fill_1
XFILLER_0_15_167 VGND VGND VPWR VPWR sky130_fd_sc_hd__fill_1
XFILLER_0_21_148 VPWR VGND VPWR VGND sky130_ef_sc_hd__decap_12
XFILLER_0_21_137 VGND VGND VPWR VPWR sky130_fd_sc_hd__decap_4
XPHY_EDGE_ROW_1_Right_1 VGND VGND VPWR VPWR sky130_fd_sc_hd__decap_3
Xoutput26 net26 VGND VGND VPWR VPWR out[6] sky130_fd_sc_hd__buf_2
XFILLER_0_7_186 VGND VGND VPWR VPWR sky130_fd_sc_hd__decap_4
XTAP_TAPCELL_ROW_17_110 VGND VPWR sky130_fd_sc_hd__tapvpwrvgnd_1
XFILLER_0_4_134 VGND VGND VPWR VPWR sky130_fd_sc_hd__decap_6
XFILLER_0_4_167 VPWR VGND VPWR VGND sky130_ef_sc_hd__decap_12
XFILLER_0_7_33 VGND VGND VPWR VPWR sky130_fd_sc_hd__decap_8
XFILLER_0_7_55 VGND VGND VPWR VPWR sky130_fd_sc_hd__fill_1
XTAP_TAPCELL_ROW_14_102 VGND VPWR sky130_fd_sc_hd__tapvpwrvgnd_1
XFILLER_0_13_69 VGND VGND VPWR VPWR sky130_fd_sc_hd__decap_3
XFILLER_0_13_25 VGND VGND VPWR VPWR sky130_fd_sc_hd__decap_8
XFILLER_0_0_181 VGND VGND VPWR VPWR sky130_fd_sc_hd__fill_1
XFILLER_0_4_45 VGND VGND VPWR VPWR sky130_fd_sc_hd__fill_1
XFILLER_0_4_56 VGND VGND VPWR VPWR sky130_fd_sc_hd__fill_1
XFILLER_0_27_165 VGND VGND VPWR VPWR sky130_fd_sc_hd__decap_3
X_184_ net6 _003_ VGND VGND VPWR VPWR _005_ sky130_fd_sc_hd__and2_1
XFILLER_0_19_57 VPWR VGND VPWR VGND sky130_ef_sc_hd__decap_12
XFILLER_0_18_121 VGND VGND VPWR VPWR sky130_fd_sc_hd__fill_1
X_167_ _091_ _094_ VGND VGND VPWR VPWR _095_ sky130_fd_sc_hd__nand2_1
XFILLER_0_15_113 VPWR VGND VPWR VGND sky130_ef_sc_hd__decap_12
XFILLER_0_1_57 VPWR VGND VPWR VGND sky130_ef_sc_hd__decap_12
X_219_ _096_ _033_ _037_ VGND VGND VPWR VPWR net27 sky130_fd_sc_hd__a21o_1
Xoutput27 net27 VGND VGND VPWR VPWR out[7] sky130_fd_sc_hd__buf_2
XFILLER_0_7_165 VGND VGND VPWR VPWR sky130_fd_sc_hd__decap_3
XFILLER_0_27_57 VPWR VGND VPWR VGND sky130_ef_sc_hd__decap_12
XTAP_TAPCELL_ROW_17_111 VGND VPWR sky130_fd_sc_hd__tapvpwrvgnd_1
XPHY_EDGE_ROW_24_Right_24 VGND VGND VPWR VPWR sky130_fd_sc_hd__decap_3
XPHY_EDGE_ROW_15_Right_15 VGND VGND VPWR VPWR sky130_fd_sc_hd__decap_3
XFILLER_0_4_179 VGND VGND VPWR VPWR sky130_fd_sc_hd__decap_8
XTAP_TAPCELL_ROW_14_103 VGND VPWR sky130_fd_sc_hd__tapvpwrvgnd_1
XFILLER_0_13_37 VPWR VGND VPWR VGND sky130_ef_sc_hd__decap_12
XFILLER_0_1_105 VGND VGND VPWR VPWR sky130_fd_sc_hd__decap_6
XPHY_EDGE_ROW_19_Left_47 VGND VGND VPWR VPWR sky130_fd_sc_hd__decap_3
XFILLER_0_19_69 VPWR VGND VPWR VGND sky130_ef_sc_hd__decap_12
X_183_ net6 _003_ VGND VGND VPWR VPWR _004_ sky130_fd_sc_hd__nor2_1
XFILLER_0_10_27 VGND VGND VPWR VPWR sky130_fd_sc_hd__fill_1
XFILLER_0_21_15 VPWR VGND VPWR VGND sky130_ef_sc_hd__decap_12
XFILLER_0_24_169 VGND VGND VPWR VPWR sky130_fd_sc_hd__decap_3
XFILLER_0_24_147 VGND VGND VPWR VPWR sky130_fd_sc_hd__fill_1
XFILLER_0_15_169 VPWR VGND VPWR VGND sky130_ef_sc_hd__decap_12
XFILLER_0_15_147 VPWR VGND VPWR VGND sky130_ef_sc_hd__decap_12
XFILLER_0_15_125 VPWR VGND VPWR VGND sky130_ef_sc_hd__decap_12
XFILLER_0_1_69 VPWR VGND VPWR VGND sky130_ef_sc_hd__decap_12
X_166_ _065_ _068_ _080_ _093_ VGND VGND VPWR VPWR _094_ sky130_fd_sc_hd__a31o_1
XFILLER_0_11_81 VPWR VGND VPWR VGND sky130_ef_sc_hd__decap_12
XPHY_EDGE_ROW_7_Left_35 VGND VGND VPWR VPWR sky130_fd_sc_hd__decap_3
X_149_ _076_ _077_ net4 VGND VGND VPWR VPWR _078_ sky130_fd_sc_hd__a21oi_1
XFILLER_0_20_161 VGND VGND VPWR VPWR sky130_fd_sc_hd__fill_2
X_218_ _044_ _029_ _034_ _036_ VGND VGND VPWR VPWR _037_ sky130_fd_sc_hd__a211o_1
XFILLER_0_12_139 VGND VGND VPWR VPWR sky130_fd_sc_hd__fill_1
XFILLER_0_7_100 VPWR VGND VPWR VGND sky130_ef_sc_hd__decap_12
XFILLER_0_27_69 VPWR VGND VPWR VGND sky130_ef_sc_hd__decap_12
XTAP_TAPCELL_ROW_17_112 VGND VPWR sky130_fd_sc_hd__tapvpwrvgnd_1
XFILLER_0_7_57 VPWR VGND VPWR VGND sky130_ef_sc_hd__decap_12
XFILLER_0_13_49 VGND VGND VPWR VPWR sky130_fd_sc_hd__decap_6
XPHY_EDGE_ROW_20_Left_48 VGND VGND VPWR VPWR sky130_fd_sc_hd__decap_3
XFILLER_0_14_70 VPWR VGND VPWR VGND sky130_ef_sc_hd__decap_12
X_182_ net14 _002_ VGND VGND VPWR VPWR _003_ sky130_fd_sc_hd__xnor2_2
XFILLER_0_19_48 VGND VGND VPWR VPWR sky130_fd_sc_hd__decap_8
XFILLER_0_18_189 VGND VGND VPWR VPWR sky130_fd_sc_hd__fill_1
XFILLER_0_18_167 VPWR VGND VPWR VGND sky130_ef_sc_hd__decap_12
XFILLER_0_24_137 VGND VGND VPWR VPWR sky130_fd_sc_hd__decap_3
XPHY_EDGE_ROW_23_Left_51 VGND VGND VPWR VPWR sky130_fd_sc_hd__decap_3
XFILLER_0_21_27 VPWR VGND VPWR VGND sky130_ef_sc_hd__decap_12
X_165_ net3 _067_ _092_ _079_ VGND VGND VPWR VPWR _093_ sky130_fd_sc_hd__a31o_1
XFILLER_0_23_181 VGND VGND VPWR VPWR sky130_fd_sc_hd__decap_8
XFILLER_0_15_159 VGND VGND VPWR VPWR sky130_fd_sc_hd__decap_8
XFILLER_0_15_137 VGND VGND VPWR VPWR sky130_fd_sc_hd__decap_4
XFILLER_0_11_93 VPWR VGND VPWR VGND sky130_ef_sc_hd__decap_12
XFILLER_0_16_27 VGND VGND VPWR VPWR sky130_fd_sc_hd__fill_1
X_148_ net12 net28 _075_ VGND VGND VPWR VPWR _077_ sky130_fd_sc_hd__nand3b_2
X_217_ net16 net8 _039_ _035_ VGND VGND VPWR VPWR _036_ sky130_fd_sc_hd__a31o_1
XFILLER_0_7_69 VPWR VGND VPWR VGND sky130_ef_sc_hd__decap_12
XFILLER_0_17_81 VPWR VGND VPWR VGND sky130_ef_sc_hd__decap_12
XFILLER_0_3_181 VGND VGND VPWR VPWR sky130_fd_sc_hd__decap_4
XPHY_EDGE_ROW_5_Right_5 VGND VGND VPWR VPWR sky130_fd_sc_hd__decap_3
XTAP_TAPCELL_ROW_20_119 VGND VPWR sky130_fd_sc_hd__tapvpwrvgnd_1
XFILLER_0_0_184 VGND VGND VPWR VPWR sky130_fd_sc_hd__fill_2
XFILLER_0_24_27 VGND VGND VPWR VPWR sky130_fd_sc_hd__fill_1
XFILLER_0_14_82 VGND VGND VPWR VPWR sky130_fd_sc_hd__fill_2
X_181_ net12 net13 _075_ _051_ VGND VGND VPWR VPWR _002_ sky130_fd_sc_hd__o31a_2
XFILLER_0_10_29 VPWR VGND VPWR VGND sky130_ef_sc_hd__decap_12
XFILLER_0_27_113 VGND VGND VPWR VPWR sky130_fd_sc_hd__decap_3
XTAP_TAPCELL_ROW_9_86 VGND VPWR sky130_fd_sc_hd__tapvpwrvgnd_1
XFILLER_0_18_179 VGND VGND VPWR VPWR sky130_fd_sc_hd__decap_4
XFILLER_0_24_105 VPWR VGND VPWR VGND sky130_ef_sc_hd__decap_12
XFILLER_0_21_39 VPWR VGND VPWR VGND sky130_ef_sc_hd__decap_12
X_164_ _076_ _077_ net4 VGND VGND VPWR VPWR _092_ sky130_fd_sc_hd__a21o_1
XFILLER_0_23_160 VGND VGND VPWR VPWR sky130_fd_sc_hd__decap_8
XFILLER_0_25_9 VPWR VGND VPWR VGND sky130_ef_sc_hd__decap_12
XFILLER_0_20_185 VGND VGND VPWR VPWR sky130_fd_sc_hd__decap_4
XFILLER_0_20_141 VPWR VGND VPWR VGND sky130_ef_sc_hd__decap_12
XFILLER_0_18_8 VPWR VGND VPWR VGND sky130_ef_sc_hd__decap_12
X_147_ _051_ _075_ net12 VGND VGND VPWR VPWR _076_ sky130_fd_sc_hd__a21bo_1
XFILLER_0_7_113 VPWR VGND VPWR VGND sky130_ef_sc_hd__decap_12
X_216_ net8 _041_ VGND VGND VPWR VPWR _035_ sky130_fd_sc_hd__nor2_1
XFILLER_0_2_92 VGND VGND VPWR VPWR sky130_fd_sc_hd__decap_6
XFILLER_0_27_27 VGND VGND VPWR VPWR sky130_fd_sc_hd__fill_1
XFILLER_0_4_105 VGND VGND VPWR VPWR sky130_fd_sc_hd__fill_2
XFILLER_0_4_149 VGND VGND VPWR VPWR sky130_fd_sc_hd__fill_1
XTAP_TAPCELL_ROW_23_128 VGND VPWR sky130_fd_sc_hd__tapvpwrvgnd_1
XFILLER_0_17_93 VPWR VGND VPWR VGND sky130_ef_sc_hd__decap_12
XPHY_EDGE_ROW_20_Right_20 VGND VGND VPWR VPWR sky130_fd_sc_hd__decap_3
XPHY_EDGE_ROW_11_Right_11 VGND VGND VPWR VPWR sky130_fd_sc_hd__decap_3
XFILLER_0_21_3 VPWR VGND VPWR VGND sky130_ef_sc_hd__decap_12
XFILLER_0_0_141 VGND VGND VPWR VPWR sky130_fd_sc_hd__decap_8
XFILLER_0_24_17 VGND VGND VPWR VPWR sky130_fd_sc_hd__fill_1
XFILLER_0_4_27 VGND VGND VPWR VPWR sky130_fd_sc_hd__fill_1
X_180_ _095_ _097_ _001_ VGND VGND VPWR VPWR net24 sky130_fd_sc_hd__a21bo_1
XFILLER_0_10_19 VGND VGND VPWR VPWR sky130_fd_sc_hd__decap_8
XFILLER_0_27_169 VPWR VGND VPWR VGND sky130_ef_sc_hd__decap_12
XTAP_TAPCELL_ROW_0_56 VGND VPWR sky130_fd_sc_hd__tapvpwrvgnd_1
XTAP_TAPCELL_ROW_9_87 VGND VPWR sky130_fd_sc_hd__tapvpwrvgnd_1
XFILLER_0_24_117 VPWR VGND VPWR VGND sky130_ef_sc_hd__decap_12
XFILLER_0_5_81 VPWR VGND VPWR VGND sky130_ef_sc_hd__decap_12
X_163_ net5 _090_ VGND VGND VPWR VPWR _091_ sky130_fd_sc_hd__xnor2_2
XFILLER_0_23_150 VGND VGND VPWR VPWR sky130_fd_sc_hd__fill_2
XFILLER_0_16_29 VPWR VGND VPWR VGND sky130_ef_sc_hd__decap_12
XFILLER_0_20_153 VGND VGND VPWR VPWR sky130_fd_sc_hd__decap_8
X_146_ net9 net10 net11 VGND VGND VPWR VPWR _075_ sky130_fd_sc_hd__or3_4
X_215_ _047_ _030_ VGND VGND VPWR VPWR _034_ sky130_fd_sc_hd__nor2_1
XTAP_TAPCELL_ROW_6_77 VGND VPWR sky130_fd_sc_hd__tapvpwrvgnd_1
XFILLER_0_12_109 VPWR VGND VPWR VGND sky130_ef_sc_hd__decap_12
XTAP_TAPCELL_ROW_26_137 VGND VPWR sky130_fd_sc_hd__tapvpwrvgnd_1
XFILLER_0_22_83 VGND VGND VPWR VPWR sky130_fd_sc_hd__fill_1
XFILLER_0_7_125 VPWR VGND VPWR VGND sky130_ef_sc_hd__decap_12
XFILLER_0_7_169 VPWR VGND VPWR VGND sky130_ef_sc_hd__decap_12
XTAP_TAPCELL_ROW_23_129 VGND VPWR sky130_fd_sc_hd__tapvpwrvgnd_1
X_129_ net2 _041_ VGND VGND VPWR VPWR _060_ sky130_fd_sc_hd__nor2_1
XFILLER_0_3_161 VGND VGND VPWR VPWR sky130_fd_sc_hd__decap_6
XFILLER_0_7_9 VPWR VGND VPWR VGND sky130_ef_sc_hd__decap_12
XFILLER_0_24_29 VGND VGND VPWR VPWR sky130_fd_sc_hd__fill_1
XTAP_TAPCELL_ROW_13_98 VGND VPWR sky130_fd_sc_hd__tapvpwrvgnd_1
XFILLER_0_27_137 VGND VGND VPWR VPWR sky130_fd_sc_hd__decap_3
XTAP_TAPCELL_ROW_0_57 VGND VPWR sky130_fd_sc_hd__tapvpwrvgnd_1
XTAP_TAPCELL_ROW_9_88 VGND VPWR sky130_fd_sc_hd__tapvpwrvgnd_1
X_162_ net13 _089_ VGND VGND VPWR VPWR _090_ sky130_fd_sc_hd__xnor2_2
XFILLER_0_24_129 VGND VGND VPWR VPWR sky130_fd_sc_hd__decap_8
XFILLER_0_5_93 VPWR VGND VPWR VGND sky130_ef_sc_hd__decap_12
Xinput1 A[0] VGND VGND VPWR VPWR net1 sky130_fd_sc_hd__buf_2
X_145_ _045_ _069_ _070_ _074_ VGND VGND VPWR VPWR net22 sky130_fd_sc_hd__a31o_1
XPHY_EDGE_ROW_27_Left_55 VGND VGND VPWR VPWR sky130_fd_sc_hd__decap_3
XFILLER_0_20_121 VPWR VGND VPWR VGND sky130_ef_sc_hd__decap_12
XFILLER_0_16_19 VGND VGND VPWR VPWR sky130_fd_sc_hd__decap_8
X_214_ _027_ _032_ VGND VGND VPWR VPWR _033_ sky130_fd_sc_hd__xnor2_1
XTAP_TAPCELL_ROW_6_78 VGND VPWR sky130_fd_sc_hd__tapvpwrvgnd_1
XPHY_EDGE_ROW_11_Left_39 VGND VGND VPWR VPWR sky130_fd_sc_hd__decap_3
XTAP_TAPCELL_ROW_26_138 VGND VPWR sky130_fd_sc_hd__tapvpwrvgnd_1
XFILLER_0_2_83 VGND VGND VPWR VPWR sky130_fd_sc_hd__fill_1
XFILLER_0_7_137 VPWR VGND VPWR VGND sky130_ef_sc_hd__decap_12
XFILLER_0_11_176 VPWR VGND VPWR VGND sky130_ef_sc_hd__decap_12
X_128_ _056_ _057_ _058_ VGND VGND VPWR VPWR _059_ sky130_fd_sc_hd__a21oi_1
XFILLER_0_16_7 VPWR VGND VPWR VGND sky130_ef_sc_hd__decap_12
XTAP_TAPCELL_ROW_3_68 VGND VPWR sky130_fd_sc_hd__tapvpwrvgnd_1
XPHY_EDGE_ROW_9_Right_9 VGND VGND VPWR VPWR sky130_fd_sc_hd__decap_3
XPHY_EDGE_ROW_14_Left_42 VGND VGND VPWR VPWR sky130_fd_sc_hd__decap_3
XFILLER_0_0_165 VGND VGND VPWR VPWR sky130_fd_sc_hd__decap_3
XFILLER_0_5_7 VPWR VGND VPWR VGND sky130_ef_sc_hd__decap_12
XFILLER_0_4_29 VPWR VGND VPWR VGND sky130_ef_sc_hd__decap_12
XTAP_TAPCELL_ROW_13_99 VGND VPWR sky130_fd_sc_hd__tapvpwrvgnd_1
XFILLER_0_14_85 VPWR VGND VPWR VGND sky130_ef_sc_hd__decap_12
XFILLER_0_14_52 VGND VGND VPWR VPWR sky130_fd_sc_hd__fill_1
XTAP_TAPCELL_ROW_0_58 VGND VPWR sky130_fd_sc_hd__tapvpwrvgnd_1
XFILLER_0_25_51 VGND VGND VPWR VPWR sky130_fd_sc_hd__decap_4
XFILLER_0_18_105 VPWR VGND VPWR VGND sky130_ef_sc_hd__decap_12
X_161_ net12 _075_ net28 VGND VGND VPWR VPWR _089_ sky130_fd_sc_hd__o21ai_2
XFILLER_0_23_141 VGND VGND VPWR VPWR sky130_fd_sc_hd__decap_4
XFILLER_0_1_19 VPWR VGND VPWR VGND sky130_ef_sc_hd__decap_12
XFILLER_0_11_31 VPWR VGND VPWR VGND sky130_ef_sc_hd__decap_12
XFILLER_0_14_185 VGND VGND VPWR VPWR sky130_fd_sc_hd__decap_4
XFILLER_0_14_141 VPWR VGND VPWR VGND sky130_ef_sc_hd__decap_12
Xinput2 A[1] VGND VGND VPWR VPWR net2 sky130_fd_sc_hd__buf_2
XTAP_TAPCELL_ROW_10_89 VGND VPWR sky130_fd_sc_hd__tapvpwrvgnd_1
XFILLER_0_20_133 VGND VGND VPWR VPWR sky130_fd_sc_hd__fill_1
X_144_ net3 net11 _039_ _072_ _073_ VGND VGND VPWR VPWR _074_ sky130_fd_sc_hd__a311o_1
XPHY_EDGE_ROW_2_Left_30 VGND VGND VPWR VPWR sky130_fd_sc_hd__decap_3
X_213_ _030_ _031_ VGND VGND VPWR VPWR _032_ sky130_fd_sc_hd__xnor2_1
XTAP_TAPCELL_ROW_6_79 VGND VPWR sky130_fd_sc_hd__tapvpwrvgnd_1
XFILLER_0_22_85 VPWR VGND VPWR VGND sky130_ef_sc_hd__decap_12