*SPEF "ieee 1481-1999"
*DESIGN "alu"
*DATE "14:15:36 Sunday April 27, 2025"
*VENDOR "The OpenROAD Project"
*PROGRAM "OpenROAD"
*VERSION "b16bda7e82721d10566ff7e2b68f1ff0be9f9e38"
*DESIGN_FLOW "NAME_SCOPE LOCAL" "PIN_CAP NONE"
*DIVIDER /
*DELIMITER :
*BUS_DELIMITER []
*T_UNIT 1 NS
*C_UNIT 1 PF
*R_UNIT 1 OHM
*L_UNIT 1 HENRY

*NAME_MAP
*1 A[0]
*2 A[1]
*3 A[2]
*4 A[3]
*5 A[4]
*6 A[5]
*7 A[6]
*8 A[7]
*9 B[0]
*10 B[1]
*11 B[2]
*12 B[3]
*13 B[4]
*14 B[5]
*15 B[6]
*16 B[7]
*19 opcode[0]
*20 opcode[1]
*21 opcode[2]
*22 out[0]
*23 out[1]
*24 out[2]
*25 out[3]
*26 out[4]
*27 out[5]
*28 out[6]
*29 out[7]
*30 _000_
*31 _001_
*32 _002_
*33 _003_
*34 _004_
*35 _005_
*36 _006_
*37 _007_
*38 _008_
*39 _009_
*40 _010_
*41 _011_
*42 _012_
*43 _013_
*44 _014_
*45 _015_
*46 _016_
*47 _017_
*48 _018_
*49 _019_
*50 _020_
*51 _021_
*52 _022_
*53 _023_
*54 _024_
*55 _025_
*56 _026_
*57 _027_
*58 _028_
*59 _029_
*60 _030_
*61 _031_
*62 _032_
*63 _033_
*64 _034_
*65 _035_
*66 _036_
*67 _037_
*68 _038_
*69 _039_
*70 _040_
*71 _041_
*72 _042_
*73 _043_
*74 _044_
*75 _045_
*76 _046_
*77 _047_
*78 _048_
*79 _049_
*80 _050_
*81 _051_
*82 _052_
*83 _053_
*84 _054_
*85 _055_
*86 _056_
*87 _057_
*88 _058_
*89 _059_
*90 _060_
*91 _061_
*92 _062_
*93 _063_
*94 _064_
*95 _065_
*96 _066_
*97 _067_
*98 _068_
*99 _069_
*100 _070_
*101 _071_
*102 _072_
*103 _073_
*104 _074_
*105 _075_
*106 _076_
*107 _077_
*108 _078_
*109 _079_
*110 _080_
*111 _081_
*112 _082_
*113 _083_
*114 _084_
*115 _085_
*116 _086_
*117 _087_
*118 _088_
*119 _089_
*120 _090_
*121 _091_
*122 _092_
*123 _093_
*124 _094_
*125 _095_
*126 _096_
*127 _097_
*128 _098_
*129 _099_
*130 _100_
*131 _101_
*132 _102_
*133 _103_
*134 _104_
*135 _105_
*136 net1
*137 net10
*138 net11
*139 net12
*140 net13
*141 net14
*142 net15
*143 net16
*144 net17
*145 net18
*146 net19
*147 net2
*148 net20
*149 net21
*150 net22
*151 net23
*152 net24
*153 net25
*154 net26
*155 net27
*156 net28
*157 net3
*158 net4
*159 net5
*160 net6
*161 net7
*162 net8
*163 net9
*164 ANTENNA_1
*165 ANTENNA_2
*166 ANTENNA_3
*167 FILLER_0_0_109
*168 FILLER_0_0_113
*169 FILLER_0_0_125
*170 FILLER_0_0_13
*171 FILLER_0_0_137
*172 FILLER_0_0_141
*173 FILLER_0_0_149
*174 FILLER_0_0_157
*175 FILLER_0_0_165
*176 FILLER_0_0_169
*177 FILLER_0_0_181
*178 FILLER_0_0_184
*179 FILLER_0_0_25
*180 FILLER_0_0_29
*181 FILLER_0_0_3
*182 FILLER_0_0_35
*183 FILLER_0_0_43
*184 FILLER_0_0_55
*185 FILLER_0_0_57
*186 FILLER_0_0_65
*187 FILLER_0_0_75
*188 FILLER_0_0_83
*189 FILLER_0_0_85
*190 FILLER_0_0_9
*191 FILLER_0_0_97
*192 FILLER_0_10_109
*193 FILLER_0_10_121
*194 FILLER_0_10_133
*195 FILLER_0_10_139
*196 FILLER_0_10_141
*197 FILLER_0_10_153
*198 FILLER_0_10_165
*199 FILLER_0_10_177
*200 FILLER_0_10_189
*201 FILLER_0_10_19
*202 FILLER_0_10_27
*203 FILLER_0_10_29
*204 FILLER_0_10_41
*205 FILLER_0_10_53
*206 FILLER_0_10_65
*207 FILLER_0_10_7
*208 FILLER_0_10_77
*209 FILLER_0_10_83
*210 FILLER_0_10_85
*211 FILLER_0_10_97
*212 FILLER_0_11_105
*213 FILLER_0_11_111
*214 FILLER_0_11_113
*215 FILLER_0_11_124
*216 FILLER_0_11_136
*217 FILLER_0_11_147
*218 FILLER_0_11_159
*219 FILLER_0_11_167
*220 FILLER_0_11_176
*221 FILLER_0_11_188
*222 FILLER_0_11_19
*223 FILLER_0_11_31
*224 FILLER_0_11_43
*225 FILLER_0_11_55
*226 FILLER_0_11_57
*227 FILLER_0_11_69
*228 FILLER_0_11_7
*229 FILLER_0_11_81
*230 FILLER_0_11_93
*231 FILLER_0_12_109
*232 FILLER_0_12_121
*233 FILLER_0_12_133
*234 FILLER_0_12_139
*235 FILLER_0_12_141
*236 FILLER_0_12_15
*237 FILLER_0_12_150
*238 FILLER_0_12_162
*239 FILLER_0_12_170
*240 FILLER_0_12_178
*241 FILLER_0_12_184
*242 FILLER_0_12_27
*243 FILLER_0_12_29
*244 FILLER_0_12_3
*245 FILLER_0_12_41
*246 FILLER_0_12_53
*247 FILLER_0_12_65
*248 FILLER_0_12_77
*249 FILLER_0_12_83
*250 FILLER_0_12_85
*251 FILLER_0_12_97
*252 FILLER_0_13_102
*253 FILLER_0_13_110
*254 FILLER_0_13_113
*255 FILLER_0_13_125
*256 FILLER_0_13_13
*257 FILLER_0_13_137
*258 FILLER_0_13_149
*259 FILLER_0_13_161
*260 FILLER_0_13_167
*261 FILLER_0_13_169
*262 FILLER_0_13_178
*263 FILLER_0_13_25
*264 FILLER_0_13_33
*265 FILLER_0_13_37
*266 FILLER_0_13_49
*267 FILLER_0_13_55
*268 FILLER_0_13_57
*269 FILLER_0_13_69
*270 FILLER_0_13_77
*271 FILLER_0_13_85
*272 FILLER_0_13_90
*273 FILLER_0_14_109
*274 FILLER_0_14_121
*275 FILLER_0_14_133
*276 FILLER_0_14_139
*277 FILLER_0_14_141
*278 FILLER_0_14_153
*279 FILLER_0_14_164
*280 FILLER_0_14_176
*281 FILLER_0_14_185
*282 FILLER_0_14_189
*283 FILLER_0_14_19
*284 FILLER_0_14_27
*285 FILLER_0_14_37
*286 FILLER_0_14_46
*287 FILLER_0_14_52
*288 FILLER_0_14_58
*289 FILLER_0_14_7
*290 FILLER_0_14_70
*291 FILLER_0_14_82
*292 FILLER_0_14_85
*293 FILLER_0_14_97
*294 FILLER_0_15_100
*295 FILLER_0_15_113
*296 FILLER_0_15_125
*297 FILLER_0_15_137
*298 FILLER_0_15_141
*299 FILLER_0_15_147
*300 FILLER_0_15_15
*301 FILLER_0_15_159
*302 FILLER_0_15_167
*303 FILLER_0_15_169
*304 FILLER_0_15_181
*305 FILLER_0_15_185
*306 FILLER_0_15_189
*307 FILLER_0_15_27
*308 FILLER_0_15_3
*309 FILLER_0_15_39
*310 FILLER_0_15_51
*311 FILLER_0_15_55
*312 FILLER_0_15_64
*313 FILLER_0_15_76
*314 FILLER_0_15_88
*315 FILLER_0_16_105
*316 FILLER_0_16_117
*317 FILLER_0_16_136
*318 FILLER_0_16_147
*319 FILLER_0_16_159
*320 FILLER_0_16_171
*321 FILLER_0_16_183
*322 FILLER_0_16_19
*323 FILLER_0_16_27
*324 FILLER_0_16_29
*325 FILLER_0_16_41
*326 FILLER_0_16_53
*327 FILLER_0_16_65
*328 FILLER_0_16_7
*329 FILLER_0_16_77
*330 FILLER_0_16_83
*331 FILLER_0_16_93
*332 FILLER_0_17_105
*333 FILLER_0_17_111
*334 FILLER_0_17_113
*335 FILLER_0_17_133
*336 FILLER_0_17_145
*337 FILLER_0_17_157
*338 FILLER_0_17_162
*339 FILLER_0_17_169
*340 FILLER_0_17_177
*341 FILLER_0_17_187
*342 FILLER_0_17_19
*343 FILLER_0_17_31
*344 FILLER_0_17_39
*345 FILLER_0_17_47
*346 FILLER_0_17_55
*347 FILLER_0_17_57
*348 FILLER_0_17_69
*349 FILLER_0_17_7
*350 FILLER_0_17_81
*351 FILLER_0_17_93
*352 FILLER_0_18_105
*353 FILLER_0_18_117
*354 FILLER_0_18_121
*355 FILLER_0_18_130
*356 FILLER_0_18_141
*357 FILLER_0_18_153
*358 FILLER_0_18_167
*359 FILLER_0_18_179
*360 FILLER_0_18_189
*361 FILLER_0_18_20
*362 FILLER_0_18_29
*363 FILLER_0_18_3
*364 FILLER_0_18_41
*365 FILLER_0_18_53
*366 FILLER_0_18_65
*367 FILLER_0_18_77
*368 FILLER_0_18_8
*369 FILLER_0_18_83
*370 FILLER_0_18_93
*371 FILLER_0_19_105
*372 FILLER_0_19_111
*373 FILLER_0_19_113
*374 FILLER_0_19_125
*375 FILLER_0_19_137
*376 FILLER_0_19_153
*377 FILLER_0_19_157
*378 FILLER_0_19_165
*379 FILLER_0_19_169
*380 FILLER_0_19_173
*381 FILLER_0_19_178
*382 FILLER_0_19_188
*383 FILLER_0_19_21
*384 FILLER_0_19_33
*385 FILLER_0_19_41
*386 FILLER_0_19_48
*387 FILLER_0_19_57
*388 FILLER_0_19_69
*389 FILLER_0_19_81
*390 FILLER_0_19_9
*391 FILLER_0_19_93
*392 FILLER_0_1_105
*393 FILLER_0_1_111
*394 FILLER_0_1_113
*395 FILLER_0_1_125
*396 FILLER_0_1_160
*397 FILLER_0_1_169
*398 FILLER_0_1_181
*399 FILLER_0_1_189
*400 FILLER_0_1_19
*401 FILLER_0_1_31
*402 FILLER_0_1_43
*403 FILLER_0_1_55
*404 FILLER_0_1_57
*405 FILLER_0_1_69
*406 FILLER_0_1_7
*407 FILLER_0_1_81
*408 FILLER_0_1_93
*409 FILLER_0_20_109
*410 FILLER_0_20_121
*411 FILLER_0_20_133
*412 FILLER_0_20_139
*413 FILLER_0_20_141
*414 FILLER_0_20_153
*415 FILLER_0_20_161
*416 FILLER_0_20_185
*417 FILLER_0_20_189
*418 FILLER_0_20_21
*419 FILLER_0_20_27
*420 FILLER_0_20_29
*421 FILLER_0_20_37
*422 FILLER_0_20_53
*423 FILLER_0_20_65
*424 FILLER_0_20_77
*425 FILLER_0_20_83
*426 FILLER_0_20_85
*427 FILLER_0_20_9
*428 FILLER_0_20_97
*429 FILLER_0_21_111
*430 FILLER_0_21_113
*431 FILLER_0_21_125
*432 FILLER_0_21_137
*433 FILLER_0_21_141
*434 FILLER_0_21_148
*435 FILLER_0_21_15
*436 FILLER_0_21_160
*437 FILLER_0_21_169
*438 FILLER_0_21_177
*439 FILLER_0_21_185
*440 FILLER_0_21_27
*441 FILLER_0_21_3
*442 FILLER_0_21_39
*443 FILLER_0_21_51
*444 FILLER_0_21_55
*445 FILLER_0_21_63
*446 FILLER_0_21_75
*447 FILLER_0_21_87
*448 FILLER_0_21_99
*449 FILLER_0_22_109
*450 FILLER_0_22_121
*451 FILLER_0_22_133
*452 FILLER_0_22_139
*453 FILLER_0_22_141
*454 FILLER_0_22_153
*455 FILLER_0_22_157
*456 FILLER_0_22_163
*457 FILLER_0_22_175
*458 FILLER_0_22_179
*459 FILLER_0_22_189
*460 FILLER_0_22_27
*461 FILLER_0_22_29
*462 FILLER_0_22_41
*463 FILLER_0_22_53
*464 FILLER_0_22_65
*465 FILLER_0_22_77
*466 FILLER_0_22_83
*467 FILLER_0_22_85
*468 FILLER_0_22_9
*469 FILLER_0_22_97
*470 FILLER_0_23_10
*471 FILLER_0_23_100
*472 FILLER_0_23_113
*473 FILLER_0_23_125
*474 FILLER_0_23_141
*475 FILLER_0_23_150
*476 FILLER_0_23_160
*477 FILLER_0_23_169
*478 FILLER_0_23_181
*479 FILLER_0_23_189
*480 FILLER_0_23_22
*481 FILLER_0_23_34
*482 FILLER_0_23_46
*483 FILLER_0_23_52
*484 FILLER_0_23_57
*485 FILLER_0_23_69
*486 FILLER_0_23_81
*487 FILLER_0_23_90
*488 FILLER_0_24_105
*489 FILLER_0_24_117
*490 FILLER_0_24_129
*491 FILLER_0_24_137
*492 FILLER_0_24_141
*493 FILLER_0_24_147
*494 FILLER_0_24_161
*495 FILLER_0_24_169
*496 FILLER_0_24_17
*497 FILLER_0_24_178
*498 FILLER_0_24_189
*499 FILLER_0_24_21
*500 FILLER_0_24_27
*501 FILLER_0_24_29
*502 FILLER_0_24_3
*503 FILLER_0_24_34
*504 FILLER_0_24_42
*505 FILLER_0_24_54
*506 FILLER_0_24_66
*507 FILLER_0_24_78
*508 FILLER_0_24_9
*509 FILLER_0_24_93
*510 FILLER_0_25_109
*511 FILLER_0_25_113
*512 FILLER_0_25_125
*513 FILLER_0_25_137
*514 FILLER_0_25_149
*515 FILLER_0_25_161
*516 FILLER_0_25_167
*517 FILLER_0_25_169
*518 FILLER_0_25_181
*519 FILLER_0_25_185
*520 FILLER_0_25_21
*521 FILLER_0_25_33
*522 FILLER_0_25_45
*523 FILLER_0_25_51
*524 FILLER_0_25_55
*525 FILLER_0_25_57
*526 FILLER_0_25_69
*527 FILLER_0_25_77
*528 FILLER_0_25_85
*529 FILLER_0_25_9
*530 FILLER_0_25_97
*531 FILLER_0_26_109
*532 FILLER_0_26_121
*533 FILLER_0_26_133
*534 FILLER_0_26_139
*535 FILLER_0_26_141
*536 FILLER_0_26_15
*537 FILLER_0_26_153
*538 FILLER_0_26_165
*539 FILLER_0_26_177
*540 FILLER_0_26_188
*541 FILLER_0_26_27
*542 FILLER_0_26_29
*543 FILLER_0_26_41
*544 FILLER_0_26_67
*545 FILLER_0_26_79
*546 FILLER_0_26_83
*547 FILLER_0_26_85
*548 FILLER_0_26_97
*549 FILLER_0_27_109
*550 FILLER_0_27_113
*551 FILLER_0_27_129
*552 FILLER_0_27_137
*553 FILLER_0_27_141
*554 FILLER_0_27_153
*555 FILLER_0_27_165
*556 FILLER_0_27_169
*557 FILLER_0_27_181
*558 FILLER_0_27_185
*559 FILLER_0_27_19
*560 FILLER_0_27_27
*561 FILLER_0_27_42
*562 FILLER_0_27_54
*563 FILLER_0_27_57
*564 FILLER_0_27_69
*565 FILLER_0_27_7
*566 FILLER_0_27_81
*567 FILLER_0_27_85
*568 FILLER_0_27_97
*569 FILLER_0_2_101
*570 FILLER_0_2_114
*571 FILLER_0_2_125
*572 FILLER_0_2_137
*573 FILLER_0_2_141
*574 FILLER_0_2_153
*575 FILLER_0_2_161
*576 FILLER_0_2_189
*577 FILLER_0_2_21
*578 FILLER_0_2_27
*579 FILLER_0_2_29
*580 FILLER_0_2_41
*581 FILLER_0_2_53
*582 FILLER_0_2_65
*583 FILLER_0_2_77
*584 FILLER_0_2_83
*585 FILLER_0_2_9
*586 FILLER_0_2_92
*587 FILLER_0_3_109
*588 FILLER_0_3_113
*589 FILLER_0_3_125
*590 FILLER_0_3_137
*591 FILLER_0_3_149
*592 FILLER_0_3_161
*593 FILLER_0_3_167
*594 FILLER_0_3_169
*595 FILLER_0_3_17
*596 FILLER_0_3_181
*597 FILLER_0_3_185
*598 FILLER_0_3_23
*599 FILLER_0_3_45
*600 FILLER_0_3_53
*601 FILLER_0_3_57
*602 FILLER_0_3_69
*603 FILLER_0_3_77
*604 FILLER_0_3_85
*605 FILLER_0_3_9
*606 FILLER_0_3_97
*607 FILLER_0_4_105
*608 FILLER_0_4_110
*609 FILLER_0_4_122
*610 FILLER_0_4_134
*611 FILLER_0_4_141
*612 FILLER_0_4_149
*613 FILLER_0_4_155
*614 FILLER_0_4_167
*615 FILLER_0_4_179
*616 FILLER_0_4_187
*617 FILLER_0_4_19
*618 FILLER_0_4_27
*619 FILLER_0_4_29
*620 FILLER_0_4_41
*621 FILLER_0_4_45
*622 FILLER_0_4_52
*623 FILLER_0_4_56
*624 FILLER_0_4_64
*625 FILLER_0_4_7
*626 FILLER_0_4_76
*627 FILLER_0_4_85
*628 FILLER_0_4_97
*629 FILLER_0_5_105
*630 FILLER_0_5_111
*631 FILLER_0_5_113
*632 FILLER_0_5_125
*633 FILLER_0_5_137
*634 FILLER_0_5_149
*635 FILLER_0_5_169
*636 FILLER_0_5_181
*637 FILLER_0_5_189
*638 FILLER_0_5_19
*639 FILLER_0_5_25
*640 FILLER_0_5_35
*641 FILLER_0_5_48
*642 FILLER_0_5_57
*643 FILLER_0_5_69
*644 FILLER_0_5_7
*645 FILLER_0_5_81
*646 FILLER_0_5_93
*647 FILLER_0_6_101
*648 FILLER_0_6_113
*649 FILLER_0_6_125
*650 FILLER_0_6_137
*651 FILLER_0_6_141
*652 FILLER_0_6_15
*653 FILLER_0_6_153
*654 FILLER_0_6_165
*655 FILLER_0_6_177
*656 FILLER_0_6_189
*657 FILLER_0_6_27
*658 FILLER_0_6_29
*659 FILLER_0_6_3
*660 FILLER_0_6_35
*661 FILLER_0_6_43
*662 FILLER_0_6_55
*663 FILLER_0_6_67
*664 FILLER_0_6_79
*665 FILLER_0_6_83
*666 FILLER_0_6_85
*667 FILLER_0_6_89
*668 FILLER_0_7_100
*669 FILLER_0_7_113
*670 FILLER_0_7_125
*671 FILLER_0_7_137
*672 FILLER_0_7_149
*673 FILLER_0_7_165
*674 FILLER_0_7_169
*675 FILLER_0_7_181
*676 FILLER_0_7_186
*677 FILLER_0_7_21
*678 FILLER_0_7_33
*679 FILLER_0_7_41
*680 FILLER_0_7_51
*681 FILLER_0_7_55
*682 FILLER_0_7_57
*683 FILLER_0_7_69
*684 FILLER_0_7_81
*685 FILLER_0_7_87
*686 FILLER_0_7_9
*687 FILLER_0_8_103
*688 FILLER_0_8_115
*689 FILLER_0_8_123
*690 FILLER_0_8_132
*691 FILLER_0_8_141
*692 FILLER_0_8_15
*693 FILLER_0_8_153
*694 FILLER_0_8_165
*695 FILLER_0_8_177
*696 FILLER_0_8_185
*697 FILLER_0_8_21
*698 FILLER_0_8_27
*699 FILLER_0_8_29
*700 FILLER_0_8_44
*701 FILLER_0_8_56
*702 FILLER_0_8_68
*703 FILLER_0_8_72
*704 FILLER_0_8_76
*705 FILLER_0_8_85
*706 FILLER_0_8_9
*707 FILLER_0_9_10
*708 FILLER_0_9_105
*709 FILLER_0_9_111
*710 FILLER_0_9_113
*711 FILLER_0_9_125
*712 FILLER_0_9_137
*713 FILLER_0_9_14
*714 FILLER_0_9_149
*715 FILLER_0_9_161
*716 FILLER_0_9_167
*717 FILLER_0_9_169
*718 FILLER_0_9_181
*719 FILLER_0_9_185
*720 FILLER_0_9_189
*721 FILLER_0_9_26
*722 FILLER_0_9_3
*723 FILLER_0_9_38
*724 FILLER_0_9_50
*725 FILLER_0_9_57
*726 FILLER_0_9_69
*727 FILLER_0_9_81
*728 FILLER_0_9_93
*729 PHY_EDGE_ROW_0_Left_28
*730 PHY_EDGE_ROW_0_Right_0
*731 PHY_EDGE_ROW_10_Left_38
*732 PHY_EDGE_ROW_10_Right_10
*733 PHY_EDGE_ROW_11_Left_39
*734 PHY_EDGE_ROW_11_Right_11
*735 PHY_EDGE_ROW_12_Left_40
*736 PHY_EDGE_ROW_12_Right_12
*737 PHY_EDGE_ROW_13_Left_41
*738 PHY_EDGE_ROW_13_Right_13
*739 PHY_EDGE_ROW_14_Left_42
*740 PHY_EDGE_ROW_14_Right_14
*741 PHY_EDGE_ROW_15_Left_43
*742 PHY_EDGE_ROW_15_Right_15
*743 PHY_EDGE_ROW_16_Left_44
*744 PHY_EDGE_ROW_16_Right_16
*745 PHY_EDGE_ROW_17_Left_45
*746 PHY_EDGE_ROW_17_Right_17
*747 PHY_EDGE_ROW_18_Left_46
*748 PHY_EDGE_ROW_18_Right_18
*749 PHY_EDGE_ROW_19_Left_47
*750 PHY_EDGE_ROW_19_Right_19
*751 PHY_EDGE_ROW_1_Left_29
*752 PHY_EDGE_ROW_1_Right_1
*753 PHY_EDGE_ROW_20_Left_48
*754 PHY_EDGE_ROW_20_Right_20
*755 PHY_EDGE_ROW_21_Left_49
*756 PHY_EDGE_ROW_21_Right_21
*757 PHY_EDGE_ROW_22_Left_50
*758 PHY_EDGE_ROW_22_Right_22
*759 PHY_EDGE_ROW_23_Left_51
*760 PHY_EDGE_ROW_23_Right_23
*761 PHY_EDGE_ROW_24_Left_52
*762 PHY_EDGE_ROW_24_Right_24
*763 PHY_EDGE_ROW_25_Left_53
*764 PHY_EDGE_ROW_25_Right_25
*765 PHY_EDGE_ROW_26_Left_54
*766 PHY_EDGE_ROW_26_Right_26
*767 PHY_EDGE_ROW_27_Left_55
*768 PHY_EDGE_ROW_27_Right_27
*769 PHY_EDGE_ROW_2_Left_30
*770 PHY_EDGE_ROW_2_Right_2
*771 PHY_EDGE_ROW_3_Left_31
*772 PHY_EDGE_ROW_3_Right_3
*773 PHY_EDGE_ROW_4_Left_32
*774 PHY_EDGE_ROW_4_Right_4
*775 PHY_EDGE_ROW_5_Left_33
*776 PHY_EDGE_ROW_5_Right_5
*777 PHY_EDGE_ROW_6_Left_34
*778 PHY_EDGE_ROW_6_Right_6
*779 PHY_EDGE_ROW_7_Left_35
*780 PHY_EDGE_ROW_7_Right_7
*781 PHY_EDGE_ROW_8_Left_36
*782 PHY_EDGE_ROW_8_Right_8
*783 PHY_EDGE_ROW_9_Left_37
*784 PHY_EDGE_ROW_9_Right_9
*785 TAP_TAPCELL_ROW_0_56
*786 TAP_TAPCELL_ROW_0_57
*787 TAP_TAPCELL_ROW_0_58
*788 TAP_TAPCELL_ROW_0_59
*789 TAP_TAPCELL_ROW_0_60
*790 TAP_TAPCELL_ROW_0_61
*791 TAP_TAPCELL_ROW_10_89
*792 TAP_TAPCELL_ROW_10_90
*793 TAP_TAPCELL_ROW_10_91
*794 TAP_TAPCELL_ROW_11_92
*795 TAP_TAPCELL_ROW_11_93
*796 TAP_TAPCELL_ROW_11_94
*797 TAP_TAPCELL_ROW_12_95
*798 TAP_TAPCELL_ROW_12_96
*799 TAP_TAPCELL_ROW_12_97
*800 TAP_TAPCELL_ROW_13_100
*801 TAP_TAPCELL_ROW_13_98
*802 TAP_TAPCELL_ROW_13_99
*803 TAP_TAPCELL_ROW_14_101
*804 TAP_TAPCELL_ROW_14_102
*805 TAP_TAPCELL_ROW_14_103
*806 TAP_TAPCELL_ROW_15_104
*807 TAP_TAPCELL_ROW_15_105
*808 TAP_TAPCELL_ROW_15_106
*809 TAP_TAPCELL_ROW_16_107
*810 TAP_TAPCELL_ROW_16_108
*811 TAP_TAPCELL_ROW_16_109
*812 TAP_TAPCELL_ROW_17_110
*813 TAP_TAPCELL_ROW_17_111
*814 TAP_TAPCELL_ROW_17_112
*815 TAP_TAPCELL_ROW_18_113
*816 TAP_TAPCELL_ROW_18_114
*817 TAP_TAPCELL_ROW_18_115
*818 TAP_TAPCELL_ROW_19_116
*819 TAP_TAPCELL_ROW_19_117
*820 TAP_TAPCELL_ROW_19_118
*821 TAP_TAPCELL_ROW_1_62
*822 TAP_TAPCELL_ROW_1_63
*823 TAP_TAPCELL_ROW_1_64
*824 TAP_TAPCELL_ROW_20_119
*825 TAP_TAPCELL_ROW_20_120
*826 TAP_TAPCELL_ROW_20_121
*827 TAP_TAPCELL_ROW_21_122
*828 TAP_TAPCELL_ROW_21_123
*829 TAP_TAPCELL_ROW_21_124
*830 TAP_TAPCELL_ROW_22_125
*831 TAP_TAPCELL_ROW_22_126
*832 TAP_TAPCELL_ROW_22_127
*833 TAP_TAPCELL_ROW_23_128
*834 TAP_TAPCELL_ROW_23_129
*835 TAP_TAPCELL_ROW_23_130
*836 TAP_TAPCELL_ROW_24_131
*837 TAP_TAPCELL_ROW_24_132
*838 TAP_TAPCELL_ROW_24_133
*839 TAP_TAPCELL_ROW_25_134
*840 TAP_TAPCELL_ROW_25_135
*841 TAP_TAPCELL_ROW_25_136
*842 TAP_TAPCELL_ROW_26_137
*843 TAP_TAPCELL_ROW_26_138
*844 TAP_TAPCELL_ROW_26_139
*845 TAP_TAPCELL_ROW_27_140
*846 TAP_TAPCELL_ROW_27_141
*847 TAP_TAPCELL_ROW_27_142
*848 TAP_TAPCELL_ROW_27_143
*849 TAP_TAPCELL_ROW_27_144
*850 TAP_TAPCELL_ROW_27_145
*851 TAP_TAPCELL_ROW_2_65
*852 TAP_TAPCELL_ROW_2_66
*853 TAP_TAPCELL_ROW_2_67
*854 TAP_TAPCELL_ROW_3_68
*855 TAP_TAPCELL_ROW_3_69
*856 TAP_TAPCELL_ROW_3_70
*857 TAP_TAPCELL_ROW_4_71
*858 TAP_TAPCELL_ROW_4_72
*859 TAP_TAPCELL_ROW_4_73
*860 TAP_TAPCELL_ROW_5_74
*861 TAP_TAPCELL_ROW_5_75
*862 TAP_TAPCELL_ROW_5_76
*863 TAP_TAPCELL_ROW_6_77
*864 TAP_TAPCELL_ROW_6_78
*865 TAP_TAPCELL_ROW_6_79
*866 TAP_TAPCELL_ROW_7_80
*867 TAP_TAPCELL_ROW_7_81
*868 TAP_TAPCELL_ROW_7_82
*869 TAP_TAPCELL_ROW_8_83
*870 TAP_TAPCELL_ROW_8_84
*871 TAP_TAPCELL_ROW_8_85
*872 TAP_TAPCELL_ROW_9_86
*873 TAP_TAPCELL_ROW_9_87
*874 TAP_TAPCELL_ROW_9_88
*875 _106_
*876 _107_
*877 _108_
*878 _109_
*879 _110_
*880 _111_
*881 _112_
*882 _113_
*883 _114_
*884 _115_
*885 _116_
*886 _117_
*887 _118_
*888 _119_
*889 _120_
*890 _121_
*891 _122_
*892 _123_
*893 _124_
*894 _125_
*895 _126_
*896 _127_
*897 _128_
*898 _129_
*899 _130_
*900 _131_
*901 _132_
*902 _133_
*903 _134_
*904 _135_
*905 _136_
*906 _137_
*907 _138_
*908 _139_
*909 _140_
*910 _141_
*911 _142_
*912 _143_
*913 _144_
*914 _145_
*915 _146_
*916 _147_
*917 _148_
*918 _149_
*919 _150_
*920 _151_
*921 _152_
*922 _153_
*923 _154_
*924 _155_
*925 _156_
*926 _157_
*927 _158_
*928 _159_
*929 _160_
*930 _161_
*931 _162_
*932 _163_
*933 _164_
*934 _165_
*935 _166_
*936 _167_
*937 _168_
*938 _169_
*939 _170_
*940 _171_
*941 _172_
*942 _173_
*943 _174_
*944 _175_
*945 _176_
*946 _177_
*947 _178_
*948 _179_
*949 _180_
*950 _181_
*951 _182_
*952 _183_
*953 _184_
*954 _185_
*955 _186_
*956 _187_
*957 _188_
*958 _189_
*959 _190_
*960 _191_
*961 _192_
*962 _193_
*963 _194_
*964 _195_
*965 _196_
*966 _197_
*967 _198_
*968 _199_
*969 _200_
*970 _201_
*971 _202_
*972 _203_
*973 _204_
*974 _205_
*975 _206_
*976 _207_
*977 _208_
*978 _209_
*979 _210_
*980 _211_
*981 _212_
*982 _213_
*983 _214_
*984 _215_
*985 _216_
*986 _217_
*987 _218_
*988 _219_
*989 clone1
*990 input1
*991 input10
*992 input11
*993 input12
*994 input13
*995 input14
*996 input15
*997 input16
*998 input17
*999 input18
*1000 input19
*1001 input2
*1002 input3
*1003 input4
*1004 input5
*1005 input6
*1006 input7
*1007 input8
*1008 input9
*1009 output20
*1010 output21
*1011 output22
*1012 output23
*1013 output24
*1014 output25
*1015 output26
*1016 output27

*PORTS
A[0] I
A[1] I
A[2] I
A[3] I
A[4] I
A[5] I
A[6] I
A[7] I
B[0] I
B[1] I
B[2] I
B[3] I
B[4] I
B[5] I
B[6] I
B[7] I
opcode[0] I
opcode[1] I
opcode[2] I
out[0] O
out[1] O
out[2] O
out[3] O
out[4] O
out[5] O
out[6] O
out[7] O

*D_NET *1 0.000681697
*CONN
*P A[0] I
*I *990:A I *D sky130_fd_sc_hd__buf_2
*CAP
1 A[0] 0.000283098
2 *990:A 0.000283098
3 *990:A *2:17 1.05236e-05
4 *990:A *16:17 0
5 *990:A *87:70 0.000104978
*RES
1 A[0] *990:A 48.1354 
*END

*D_NET *2 0.000731126
*CONN
*P A[1] I
*I *1001:A I *D sky130_fd_sc_hd__buf_2
*CAP
1 A[1] 0.000357792
2 *1001:A 0
3 *2:17 0.000357792
4 *2:17 *1002:A 5.01799e-06
5 *2:17 *87:70 0
6 *990:A *2:17 1.05236e-05
*RES
1 A[1] *2:17 28.2148 
2 *2:17 *1001:A 23 
*END

*D_NET *3 0.000627556
*CONN
*P A[2] I
*I *1002:A I *D sky130_fd_sc_hd__buf_4
*CAP
1 A[2] 0.00030876
2 *1002:A 0.00030876
3 *1002:A *4:17 5.01799e-06
4 *2:17 *1002:A 5.01799e-06
*RES
1 A[2] *1002:A 49.8062 
*END

*D_NET *4 0.000837303
*CONN
*P A[3] I
*I *1003:A I *D sky130_fd_sc_hd__clkbuf_4
*CAP
1 A[3] 0.000413633
2 *1003:A 0
3 *4:17 0.000413633
4 *4:17 *5:17 5.01799e-06
5 *4:17 *158:12 0
6 *1002:A *4:17 5.01799e-06
*RES
1 A[3] *4:17 29.0434 
2 *4:17 *1003:A 23 
*END

*D_NET *5 0.000650723
*CONN
*P A[4] I
*I *1004:A I *D sky130_fd_sc_hd__buf_2
*CAP
1 A[4] 0.000319874
2 *1004:A 0
3 *5:17 0.000319874
4 *5:17 *6:17 5.95675e-06
5 *5:17 *158:12 0
6 *4:17 *5:17 5.01799e-06
*RES
1 A[4] *5:17 27.1584 
2 *5:17 *1004:A 23 
*END

*D_NET *6 0.000782479
*CONN
*P A[5] I
*I *1005:A I *D sky130_fd_sc_hd__clkbuf_2
*CAP
1 A[5] 0.000388261
2 *1005:A 0
3 *6:17 0.000388261
4 *6:17 *7:17 0
5 *6:17 *158:12 0
6 *5:17 *6:17 5.95675e-06
*RES
1 A[5] *6:17 28.3391 
2 *6:17 *1005:A 23 
*END

*D_NET *7 0.000815883
*CONN
*P A[6] I
*I *1006:A I *D sky130_fd_sc_hd__clkbuf_4
*CAP
1 A[6] 0.000386368
2 *1006:A 0
3 *7:17 0.000386368
4 *7:17 *1007:A 1.05236e-05
5 *7:17 *122:14 3.26241e-05
6 *6:17 *7:17 0
*RES
1 A[6] *7:17 28.3391 
2 *7:17 *1006:A 23 
*END

*D_NET *8 0.000730913
*CONN
*P A[7] I
*I *1007:A I *D sky130_fd_sc_hd__clkbuf_2
*CAP
1 A[7] 0.000360195
2 *1007:A 0.000360195
3 *1007:A *155:12 0
4 *7:17 *1007:A 1.05236e-05
*RES
1 A[7] *1007:A 49.6298 
*END

*D_NET *9 0.000638838
*CONN
*P B[0] I
*I *1008:A I *D sky130_fd_sc_hd__buf_2
*CAP
1 B[0] 0.000313462
2 *1008:A 0
3 *9:17 0.000313462
4 *9:17 *10:17 5.95675e-06
5 *9:17 *21:17 5.95675e-06
6 *9:17 *144:16 0
*RES
1 B[0] *9:17 27.1584 
2 *9:17 *1008:A 23 
*END

*D_NET *10 0.000776998
*CONN
*P B[1] I
*I *991:A I *D sky130_fd_sc_hd__clkbuf_4
*CAP
1 B[1] 0.000378775
2 *991:A 0
3 *10:17 0.000378775
4 *10:17 *992:A 5.95675e-06
5 *10:17 *55:14 0
6 *10:17 *144:16 7.53384e-06
7 *9:17 *10:17 5.95675e-06
*RES
1 B[1] *10:17 28.3391 
2 *10:17 *991:A 23 
*END

*D_NET *11 0.000591078
*CONN
*P B[2] I
*I *992:A I *D sky130_fd_sc_hd__buf_4
*CAP
1 B[2] 0.000292561
2 *992:A 0.000292561
3 *992:A *993:A 0
4 *10:17 *992:A 5.95675e-06
*RES
1 B[2] *992:A 49.8062 
*END

*D_NET *12 0.000868028
*CONN
*P B[3] I
*I *993:A I *D sky130_fd_sc_hd__clkbuf_4
*CAP
1 B[3] 0.000324458
2 *993:A 0.000324458
3 *993:A *13:17 8.14539e-06
4 *993:A *55:14 0.000210966
5 *992:A *993:A 0
*RES
1 B[3] *993:A 49.6298 
*END

*D_NET *13 0.000719809
*CONN
*P B[4] I
*I *994:A I *D sky130_fd_sc_hd__clkbuf_2
*CAP
1 B[4] 0.000355832
2 *994:A 0
3 *13:17 0.000355832
4 *13:17 *995:A 0
5 *13:17 *87:70 0
6 *993:A *13:17 8.14539e-06
*RES
1 B[4] *13:17 27.6348 
2 *13:17 *994:A 23 
*END

*D_NET *14 0.000788429
*CONN
*P B[5] I
*I *995:A I *D sky130_fd_sc_hd__buf_2
*CAP
1 B[5] 0.000297367
2 *995:A 0.000297367
3 *995:A *996:A 1.05236e-05
4 *995:A *87:70 0.000183171
5 *13:17 *995:A 0
*RES
1 B[5] *995:A 49.1918 
*END

*D_NET *15 0.000601629
*CONN
*P B[6] I
*I *996:A I *D sky130_fd_sc_hd__buf_2
*CAP
1 B[6] 0.000292575
2 *996:A 0.000292575
3 *996:A *16:17 5.95675e-06
4 *995:A *996:A 1.05236e-05
*RES
1 B[6] *996:A 49.8062 
*END

*D_NET *16 0.000718681
*CONN
*P B[7] I
*I *997:A I *D sky130_fd_sc_hd__dlymetal6s2s_1
*CAP
1 B[7] 0.000356362
2 *997:A 0
3 *16:17 0.000356362
4 *16:17 *87:70 0
5 *990:A *16:17 0
6 *996:A *16:17 5.95675e-06
*RES
1 B[7] *16:17 28.2148 
2 *16:17 *997:A 23 
*END

*D_NET *19 0.000660389
*CONN
*P opcode[0] I
*I *998:A I *D sky130_fd_sc_hd__buf_2
*CAP
1 opcode[0] 0.000324933
2 *998:A 0
3 *19:17 0.000324933
4 *19:17 *20:15 1.05236e-05
*RES
1 opcode[0] *19:17 27.1584 
2 *19:17 *998:A 23 
*END

*D_NET *20 0.00108409
*CONN
*P opcode[1] I
*I *999:A I *D sky130_fd_sc_hd__buf_4
*CAP
1 opcode[1] 0.000506689
2 *999:A 0
3 *20:15 0.000506689
4 *20:15 *975:B1_N 4.9662e-05
5 *20:15 *21:17 1.05236e-05
6 *20:15 *144:16 0
7 *19:17 *20:15 1.05236e-05
*RES
1 opcode[1] *20:15 29.494 
2 *20:15 *999:A 23 
*END

*D_NET *21 0.000831774
*CONN
*P opcode[2] I
*I *1000:A I *D sky130_fd_sc_hd__clkbuf_4
*CAP
1 opcode[2] 0.000407647
2 *1000:A 0
3 *21:17 0.000407647
4 *21:17 *144:16 0
5 *9:17 *21:17 5.95675e-06
6 *20:15 *21:17 1.05236e-05
*RES
1 opcode[2] *21:17 29.0434 
2 *21:17 *1000:A 23 
*END

*D_NET *22 0.00192445
*CONN
*P out[0] O
*I *1009:X O *D sky130_fd_sc_hd__buf_2
*CAP
1 out[0] 0.000393757
2 *1009:X 0.000527592
3 *22:14 0.000921349
4 *22:14 *148:34 8.17547e-05
*RES
1 *1009:X *22:14 47.9532 
2 *22:14 out[0] 9.4448 
*END

*D_NET *23 0.000633723
*CONN
*P out[1] O
*I *1010:X O *D sky130_fd_sc_hd__buf_2
*CAP
1 out[1] 0.000282636
2 *1010:X 0.000282636
3 out[1] *39:10 1.53128e-05
4 out[1] *153:8 5.31385e-05
*RES
1 *1010:X out[1] 47.6028 
*END

*D_NET *24 0.000917221
*CONN
*P out[2] O
*I *1011:X O *D sky130_fd_sc_hd__buf_2
*CAP
1 out[2] 0.000337726
2 *1011:X 0.000337726
3 out[2] *153:8 0.000162685
4 out[2] *154:10 7.90838e-05
*RES
1 *1011:X out[2] 49.0114 
*END

*D_NET *25 0.000635661
*CONN
*P out[3] O
*I *1012:X O *D sky130_fd_sc_hd__buf_2
*CAP
1 out[3] 0.000293485
2 *1012:X 0.000293485
3 out[3] *101:10 2.33476e-05
4 out[3] *153:8 2.5343e-05
*RES
1 *1012:X out[3] 47.2507 
*END

*D_NET *26 0.00068487
*CONN
*P out[4] O
*I *1013:X O *D sky130_fd_sc_hd__buf_2
*CAP
1 out[4] 0.000318868
2 *1013:X 0.000318868
3 out[4] *101:10 2.26497e-05
4 out[4] *153:8 2.44846e-05
*RES
1 *1013:X out[4] 47.2507 
*END

*D_NET *27 0.000841454
*CONN
*P out[5] O
*I *1014:X O *D sky130_fd_sc_hd__buf_2
*CAP
1 out[5] 0.000356937
2 *1014:X 0.000356937
3 out[5] *978:B 0
4 out[5] *101:10 0.00012758
*RES
1 *1014:X out[5] 48.6592 
*END

*D_NET *28 0.00063961
*CONN
*P out[6] O
*I *1015:X O *D sky130_fd_sc_hd__buf_2
*CAP
1 out[6] 0.000313348
2 *1015:X 0.000313348
3 out[6] *39:10 5.58873e-06
4 out[6] *100:24 7.32554e-06
*RES
1 *1015:X out[6] 47.2507 
*END

*D_NET *29 0.00094483
*CONN
*P out[7] O
*I *1016:X O *D sky130_fd_sc_hd__buf_2
*CAP
1 out[7] 0.000242232
2 *1016:X 0.000230183
3 *29:8 0.000472415
4 *29:8 *155:20 0
*RES
1 *1016:X *29:8 42.5468 
2 *29:8 out[7] 8.9296 
*END

*D_NET *30 0.000904387
*CONN
*I *948:C1 I *D sky130_fd_sc_hd__o211a_1
*I *947:X O *D sky130_fd_sc_hd__or4b_1
*CAP
1 *948:C1 0
2 *947:X 0.000309324
3 *30:8 0.000309324
4 *30:8 *919:C 1.95448e-05
5 *30:8 *109:8 5.10686e-05
6 *30:8 *126:52 0.000211123
7 *30:8 *144:101 4.00259e-06
*RES
1 *947:X *30:8 29.7114 
2 *30:8 *948:C1 23 
*END

*D_NET *31 0.00756645
*CONN
*I *949:B1_N I *D sky130_fd_sc_hd__a21bo_1
*I *948:X O *D sky130_fd_sc_hd__o211a_1
*CAP
1 *949:B1_N 0
2 *948:X 7.68064e-05
3 *31:10 0.00170232
4 *31:8 0.00177912
5 *31:8 *126:52 9.67842e-05
6 *31:10 *47:29 0.000680422
7 *31:10 *64:10 0.00106126
8 *31:10 *67:26 0.000129003
9 *31:10 *71:105 8.31476e-05
10 *31:10 *139:112 0
11 *31:10 *159:62 1.794e-05
12 *31:10 *160:66 0.00121786
13 *31:10 *160:79 0.000721798
*RES
1 *948:X *31:8 39.0979 
2 *31:8 *31:10 43.4586 
3 *31:10 *949:B1_N 38 
*END

*D_NET *32 0.0141207
*CONN
*I *964:B I *D sky130_fd_sc_hd__or2_1
*I *951:B I *D sky130_fd_sc_hd__xnor2_2
*I *950:X O *D sky130_fd_sc_hd__o31a_2
*CAP
1 *964:B 0.000142199
2 *951:B 0.00106314
3 *950:X 0
4 *32:23 0.00158638
5 *32:21 0.0017154
6 *32:10 0.00155908
7 *32:4 0.000767159
8 *951:B *931:A 0.000183733
9 *951:B *33:6 0.00123456
10 *951:B *104:20 0.000125311
11 *964:B *141:41 0.000481309
12 *964:B *162:16 0.000478821
13 *32:10 *44:12 4.38375e-05
14 *32:10 *75:42 0
15 *32:10 *111:10 0.000238878
16 *32:10 *140:52 0
17 *32:21 *950:A3 0.000746299
18 *32:21 *52:12 0.000110155
19 *32:21 *82:31 9.67842e-05
20 *32:21 *139:80 5.41288e-05
21 *32:23 *60:10 7.84105e-05
22 *32:23 *82:25 0.000826651
23 *32:23 *84:23 0
24 *32:23 *119:14 0.00258845
*RES
1 *950:X *32:4 23 
2 *32:4 *32:10 38.9486 
3 *32:10 *951:B 48.8721 
4 *32:4 *32:21 23.2443 
5 *32:21 *32:23 36.0636 
6 *32:23 *964:B 43.3857 
*END

*D_NET *33 0.0218797
*CONN
*I *953:B I *D sky130_fd_sc_hd__and2_1
*I *952:B I *D sky130_fd_sc_hd__nor2_1
*I *951:Y O *D sky130_fd_sc_hd__xnor2_2
*CAP
1 *953:B 0
2 *952:B 2.4288e-05
3 *951:Y 0.000249733
4 *33:47 0.0011175
5 *33:34 0.00180311
6 *33:22 0.00209046
7 *33:14 0.00236521
8 *33:6 0.0011858
9 *952:B *973:A1 5.79559e-05
10 *33:6 *104:20 0.000590514
11 *33:14 *53:10 0.000518176
12 *33:14 *79:16 0
13 *33:14 *104:12 0
14 *33:14 *138:46 0
15 *33:14 *157:90 0.000102371
16 *33:14 *159:50 0.000403333
17 *33:22 *86:25 0.000183788
18 *33:22 *98:62 0.000619958
19 *33:22 *104:12 0.000619958
20 *33:22 *117:12 0.000182081
21 *33:34 *34:8 0
22 *33:34 *40:12 3.87221e-06
23 *33:34 *41:28 0
24 *33:34 *53:10 0
25 *33:34 *88:18 5.16909e-05
26 *33:34 *104:12 9.46798e-05
27 *33:34 *156:22 0.000124002
28 *33:34 *160:18 2.05503e-05
29 *33:34 *160:33 0.00187802
30 *33:47 *34:37 9.5877e-05
31 *33:47 *35:12 0.00306619
32 *33:47 *150:28 1.21972e-05
33 *33:47 *159:50 0.000964591
34 *33:47 *159:54 0.00214629
35 *33:47 *160:79 7.29586e-05
36 *951:B *33:6 0.00123456
*RES
1 *951:Y *33:6 36.485 
2 *33:6 *33:14 47.9593 
3 *33:14 *33:22 40.6471 
4 *33:22 *33:34 49.6757 
5 *33:34 *952:B 38.6214 
6 *33:14 *33:47 40.0614 
7 *33:47 *953:B 23 
*END

*D_NET *34 0.0196869
*CONN
*I *968:A2 I *D sky130_fd_sc_hd__o21bai_1
*I *954:A I *D sky130_fd_sc_hd__nor2_1
*I *952:Y O *D sky130_fd_sc_hd__nor2_1
*CAP
1 *968:A2 0
2 *954:A 0.000826196
3 *952:Y 8.78888e-05
4 *34:45 0.000108942
5 *34:37 0.000931543
6 *34:22 0.00325046
7 *34:16 0.00385495
8 *34:14 0.00093327
9 *34:8 0.000413071
10 *954:A *954:B 5.41288e-05
11 *954:A *36:8 0.000742556
12 *954:A *137:103 0.000472133
13 *34:8 *40:12 5.23524e-05
14 *34:14 *53:18 0.000602199
15 *34:16 *37:10 0.000494089
16 *34:16 *49:10 0.000347321
17 *34:16 *52:37 0.000114902
18 *34:16 *129:10 8.23981e-05
19 *34:16 *129:18 0.000380927
20 *34:16 *157:36 0
21 *34:22 *81:28 5.50106e-05
22 *34:22 *87:47 0.000177604
23 *34:22 *137:99 0.0019531
24 *34:22 *137:103 7.65159e-05
25 *34:37 *37:10 0.00154171
26 *34:37 *52:37 0.000118027
27 *34:37 *81:28 0.000318429
28 *34:37 *81:69 0.00120247
29 *34:45 *44:12 0.000161121
30 *34:45 *81:69 0.00015795
31 *34:45 *144:90 5.3304e-05
32 *34:45 *146:108 2.64616e-05
33 *33:34 *34:8 0
34 *33:47 *34:37 9.5877e-05
*RES
1 *952:Y *34:8 39.5536 
2 *34:8 *34:14 36.815 
3 *34:14 *34:16 16.6957 
4 *34:16 *34:22 48.9921 
5 *34:22 *954:A 39.7164 
6 *34:16 *34:37 37.7236 
7 *34:37 *34:45 32.8793 
8 *34:45 *968:A2 23 
*END

*D_NET *35 0.0129927
*CONN